@<TRIPOS>MOLECULE
ZINC04717953
   40    41     0     0     0
SMALL
USER_CHARGES
1,2,2-trimethyl-3-pyrrolidin-1-ylcarbonyl-cyclopentane-1-carboxylic acid
@<TRIPOS>ATOM
      1 C1         -4.0397    2.1682    5.1891 C.3       1 <0>        -0.1337
      2 C2         -4.1606    1.3828    3.8817 C.3       1 <0>        -0.0241
      3 C3         -2.8388    1.4668    3.0907 C.3       1 <0>        -0.1029
      4 H1         -2.2719    2.3492    3.3876 H         1 <0>         0.0814
      5 C4         -2.0796    0.1745    3.4813 C.3       1 <0>        -0.1027
      6 C5         -3.2141   -0.8769    3.5631 C.3       1 <0>        -0.1091
      7 C6         -4.3992   -0.1073    4.1820 C.3       1 <0>        -0.1004
      8 C7         -4.4421   -0.3368    5.6941 C.3       1 <0>        -0.1178
      9 C8         -5.6926   -0.5597    3.5547 C.2       1 <0>         0.4798
     10 O1         -5.6766   -1.3466    2.6379 O.co2     1 <0>        -0.6317
     11 C9         -3.1116    1.4908    1.6088 C.2       1 <0>         0.5420
     12 O2         -3.3089    0.4537    1.0116 O.2       1 <0>        -0.5131
     13 N1         -3.1362    2.6646    0.9470 N.am      1 <0>        -0.6269
     14 C10        -3.0139    4.0003    1.5612 C.3       1 <0>         0.0989
     15 C11        -2.4844    4.9108    0.4252 C.3       1 <0>        -0.1329
     16 C12        -3.2318    4.3382   -0.8081 C.3       1 <0>        -0.1311
     17 C13        -3.2886    2.8258   -0.5064 C.3       1 <0>         0.1071
     18 C14        -5.3112    1.9386    3.0401 C.3       1 <0>        -0.1433
     19 H2         -3.8466    3.2176    4.9661 H         1 <0>         0.0424
     20 H3         -4.9690    2.0815    5.7523 H         1 <0>         0.0662
     21 H4         -3.2176    1.7652    5.7804 H         1 <0>         0.0541
     22 H5         -1.3567   -0.0964    2.7119 H         1 <0>         0.0607
     23 H6         -1.5906    0.2911    4.4485 H         1 <0>         0.0657
     24 H7         -2.9200   -1.7062    4.2065 H         1 <0>         0.0493
     25 H8         -3.4728   -1.2401    2.5685 H         1 <0>         0.0982
     26 H9         -5.2516    0.2502    6.1279 H         1 <0>         0.0607
     27 H10        -4.6114   -1.3944    5.8964 H         1 <0>         0.0405
     28 H11        -3.4938   -0.0298    6.1353 H         1 <0>         0.0414
     29 H12        -2.3047    3.9748    2.3886 H         1 <0>         0.0750
     30 H13        -3.9871    4.3503    1.9053 H         1 <0>         0.0698
     31 H14        -1.4054    4.8060    0.3114 H         1 <0>         0.0738
     32 H15        -2.7576    5.9515    0.5992 H         1 <0>         0.0810
     33 H16        -4.2364    4.7555   -0.8781 H         1 <0>         0.0749
     34 H17        -2.6710    4.5310   -1.7226 H         1 <0>         0.0785
     35 H18        -4.2485    2.4199   -0.8258 H         1 <0>         0.0654
     36 H19        -2.4785    2.3136   -1.0255 H         1 <0>         0.0626
     37 H20        -5.4545    1.3107    2.1608 H         1 <0>         0.0572
     38 H21        -6.2251    1.9462    3.6341 H         1 <0>         0.0852
     39 H22        -5.0736    2.9550    2.7260 H         1 <0>         0.0304
     40 O3         -6.8623   -0.0885    4.0144 O.co2     1 <0>        -0.7726
@<TRIPOS>BOND
     1    1    2 1
     2    1   19 1
     3    1   20 1
     4    1   21 1
     5    2    7 1
     6    2    3 1
     7    2   18 1
     8    3    4 1
     9    3    5 1
    10    3   11 1
    11    5    6 1
    12    5   22 1
    13    5   23 1
    14    6    7 1
    15    6   24 1
    16    6   25 1
    17    7    8 1
    18    7    9 1
    19    8   26 1
    20    8   27 1
    21    8   28 1
    22    9   10 2
    23    9   40 1
    24   11   12 2
    25   11   13 am
    26   13   17 1
    27   13   14 1
    28   14   15 1
    29   14   29 1
    30   14   30 1
    31   15   16 1
    32   15   31 1
    33   15   32 1
    34   16   17 1
    35   16   33 1
    36   16   34 1
    37   17   35 1
    38   17   36 1
    39   18   37 1
    40   18   38 1
    41   18   39 1
@<TRIPOS>MOLECULE
ZINC19723897
   29    31     0     0     0
SMALL
USER_CHARGES
1-(3,4-dimethylphenyl)-5H-pyrazolo[4,5-e]pyrimidine-4-thione
@<TRIPOS>ATOM
      1 C1         -1.2936   -0.7737    0.0097 C.3       1 <0>        -0.1092
      2 C2          0.0021   -0.0041    0.0020 C.ar      1 <0>        -0.1035
      3 C3          1.2074   -0.6822   -0.0131 C.ar      1 <0>        -0.0971
      4 C4          2.3963    0.0201   -0.0202 C.ar      1 <0>        -0.1181
      5 C5          2.3809    1.4089   -0.0126 C.ar      1 <0>         0.1760
      6 C6          1.1692    2.0867    0.0021 C.ar      1 <0>        -0.1167
      7 C7         -0.0167    1.3784    0.0096 C.ar      1 <0>        -0.0746
      8 C8         -1.3323    2.1133    0.0198 C.3       1 <0>        -0.1110
      9 N1          3.5851    2.1242   -0.0202 N.pl3     1 <0>        -0.3410
     10 C9          4.7368    1.7539    0.6041 C.ar      1 <0>         0.3410
     11 C10         5.6806    2.7568    0.3306 C.ar      1 <0>        -0.2961
     12 C11         5.0419    3.7263   -0.4649 C.2       1 <0>         0.1352
     13 N2          3.8096    3.3464   -0.6665 N.2       1 <0>        -0.2882
     14 C12         7.0253    2.6069    0.8849 C.ar      1 <0>         0.3982
     15 S1          8.2365    3.7844    0.6068 S.3       1 <0>        -0.7440
     16 N3          7.2726    1.5097    1.6381 N.ar      1 <0>        -0.5836
     17 C13         6.2975    0.5895    1.8475 C.ar      1 <0>         0.3472
     18 N4          5.0972    0.7040    1.3587 N.ar      1 <0>        -0.5912
     19 H1         -1.0793   -1.8526    0.0019 H         1 <0>         0.0632
     20 H2         -1.8818   -0.5103   -0.8817 H         1 <0>         0.0670
     21 H3         -1.8654   -0.5199    0.9145 H         1 <0>         0.0672
     22 H4          1.2188   -1.7621   -0.0190 H         1 <0>         0.1274
     23 H5          3.3372   -0.5100   -0.0320 H         1 <0>         0.1346
     24 H6          1.1539    3.1666    0.0077 H         1 <0>         0.1298
     25 H7         -1.1466    3.1975    0.0248 H         1 <0>         0.0648
     26 H8         -1.9010    1.8345    0.9191 H         1 <0>         0.0692
     27 H9         -1.9095    1.8443   -0.8771 H         1 <0>         0.0696
     28 H10         5.4943    4.6308   -0.8439 H         1 <0>         0.1981
     29 H11         6.5284   -0.2780    2.4480 H         1 <0>         0.1856
@<TRIPOS>BOND
     1    1    2 1
     2    1   19 1
     3    1   20 1
     4    1   21 1
     5    2    7 ar
     6    2    3 ar
     7    3    4 ar
     8    3   22 1
     9    4    5 ar
    10    4   23 1
    11    5    6 ar
    12    5    9 1
    13    6    7 ar
    14    6   24 1
    15    7    8 1
    16    8   25 1
    17    8   26 1
    18    8   27 1
    19    9   13 1
    20    9   10 1
    21   10   18 ar
    22   10   11 ar
    23   11   12 1
    24   11   14 ar
    25   12   13 2
    26   12   28 1
    27   14   15 1
    28   14   16 ar
    29   16   17 ar
    30   17   18 ar
    31   17   29 1
@<TRIPOS>MOLECULE
ZINC00248413
   33    35     0     0     0
SMALL
USER_CHARGES

@<TRIPOS>ATOM
      1 C1         -0.0187    1.5258    0.0104 C.3       1 <0>        -0.1653
      2 C2          0.0021   -0.0041    0.0020 C.3       1 <0>         0.1087
      3 N1          0.6878   -0.4765   -1.2033 N.pl3     1 <0>        -0.4487
      4 C3          0.0915   -0.7395   -2.4134 C.ar      1 <0>         0.1157
      5 C4         -1.2292   -0.6567   -2.8533 C.ar      1 <0>        -0.1619
      6 C5         -1.5499   -0.9855   -4.1353 C.ar      1 <0>        -0.0369
      7 C6         -0.5579   -1.4127   -5.0333 C.ar      1 <0>        -0.1630
      8 C7          0.7665   -1.5047   -4.6189 C.ar      1 <0>        -0.0288
      9 C8          1.1028   -1.1682   -3.3040 C.ar      1 <0>        -0.1253
     10 C9          2.3142   -1.1526   -2.5852 C.2       1 <0>        -0.0821
     11 C10         2.0332   -0.7244   -1.3133 C.2       1 <0>        -0.0487
     12 C11         3.0894   -0.5941   -0.2995 C.2       1 <0>         0.4249
     13 O1          2.9057   -0.0311    0.7600 O.2       1 <0>        -0.4676
     14 C12         4.4275   -1.2133   -0.6691 C.3       1 <0>        -0.1511
     15 C13         4.7338   -0.8655   -2.1298 C.3       1 <0>        -0.1124
     16 C14         3.6978   -1.5158   -3.0565 C.3       1 <0>        -0.0590
     17 C15        -0.9212   -1.7645   -6.4169 C.2       1 <0>         0.5235
     18 O2         -2.0857   -1.6845   -6.7827 O.co2     1 <0>        -0.6904
     19 O3         -0.0583   -2.1367   -7.2000 O.co2     1 <0>        -0.6893
     20 H1          1.0039    1.9031    0.0027 H         1 <0>         0.0618
     21 H2         -0.5459    1.8868   -0.8726 H         1 <0>         0.0612
     22 H3         -0.5289    1.8773    0.9072 H         1 <0>         0.0709
     23 H4          0.5293   -0.3651    0.8851 H         1 <0>         0.0908
     24 H5         -1.0205   -0.3814    0.0098 H         1 <0>         0.0850
     25 H6         -2.0021   -0.3304   -2.1733 H         1 <0>         0.1127
     26 H7         -2.5763   -0.9175   -4.4644 H         1 <0>         0.1327
     27 H8          1.5302   -1.8331   -5.3082 H         1 <0>         0.1304
     28 H9          5.2088   -0.8109   -0.0243 H         1 <0>         0.0931
     29 H10         4.3759   -2.2958   -0.5525 H         1 <0>         0.1033
     30 H11         4.7093    0.2170   -2.2555 H         1 <0>         0.0687
     31 H12         5.7271   -1.2332   -2.3874 H         1 <0>         0.0798
     32 H13         3.8134   -2.5996   -3.0446 H         1 <0>         0.0832
     33 H14         3.8458   -1.1447   -4.0707 H         1 <0>         0.0840
@<TRIPOS>BOND
     1    1    2 1
     2    1   20 1
     3    1   21 1
     4    1   22 1
     5    2    3 1
     6    2   23 1
     7    2   24 1
     8    3   11 1
     9    3    4 1
    10    4    9 ar
    11    4    5 ar
    12    5    6 ar
    13    5   25 1
    14    6    7 ar
    15    6   26 1
    16    7    8 ar
    17    7   17 1
    18    8    9 ar
    19    8   27 1
    20    9   10 1
    21   10   16 1
    22   10   11 2
    23   11   12 1
    24   12   13 2
    25   12   14 1
    26   14   15 1
    27   14   28 1
    28   14   29 1
    29   15   16 1
    30   15   30 1
    31   15   31 1
    32   16   32 1
    33   16   33 1
    34   17   18 2
    35   17   19 1
@<TRIPOS>MOLECULE
ZINC50291162
   41    43     0     0     0
SMALL
USER_CHARGES

@<TRIPOS>ATOM
      1 C1         -0.0187    1.5254    0.0104 C.3       1 <0>        -0.1183
      2 C2          1.4176    2.0532   -0.0005 C.3       1 <0>        -0.1168
      3 C3          2.1299    1.5613   -1.2616 C.3       1 <0>        -0.1124
      4 C4          2.1510    0.0312   -1.2747 C.3       1 <0>        -0.0924
      5 H1          2.6896   -0.3336   -0.4001 H         1 <0>         0.0702
      6 C5          2.8549   -0.4502   -2.5480 C.3       1 <0>         0.1163
      7 N1          2.7516   -1.9135   -2.6235 N.am      1 <0>        -0.5935
      8 C6          1.4222   -2.5323   -2.5292 C.3       1 <0>         0.1289
      9 C7          0.7364   -2.0310   -1.2548 C.3       1 <0>        -0.1366
     10 C8          0.7160   -0.5002   -1.2506 C.3       1 <0>        -0.0802
     11 H2          0.1817   -0.1451   -2.1319 H         1 <0>         0.0697
     12 C9          0.0021   -0.0041    0.0020 C.3       1 <0>        -0.1126
     13 C10         3.8541   -2.6734   -2.7767 C.2       1 <0>         0.5566
     14 O1          4.9455   -2.1500   -2.8536 O.2       1 <0>        -0.5734
     15 C11         3.7309   -4.1734   -2.8524 C.3       1 <0>        -0.1778
     16 C12         3.6349   -4.8538   -1.4766 C.3       1 <0>        -0.1060
     17 C13         4.5507   -5.9517   -2.0432 C.3       1 <0>        -0.1285
     18 C14         5.0780   -4.8942   -3.0273 C.3       1 <0>        -0.1016
     19 C15         2.6735   -4.6253   -3.8264 C.2       1 <0>         0.5222
     20 O2          2.1513   -3.8187   -4.5769 O.co2     1 <0>        -0.6809
     21 O3          2.3402   -5.7975   -3.8640 O.co2     1 <0>        -0.6797
     22 H3         -0.5285    1.8772    0.9074 H         1 <0>         0.0571
     23 H4         -0.5455    1.8868   -0.8728 H         1 <0>         0.0605
     24 H5          1.4045    3.1431    0.0081 H         1 <0>         0.0584
     25 H6          1.9455    1.6888    0.8808 H         1 <0>         0.0595
     26 H7          1.6008    1.9246   -2.1425 H         1 <0>         0.0630
     27 H8          3.1525    1.9385   -1.2714 H         1 <0>         0.0620
     28 H9          2.3765   -0.0049   -3.4203 H         1 <0>         0.0593
     29 H10         3.9049   -0.1594   -2.5170 H         1 <0>         0.0849
     30 H11         0.8267   -2.2537   -3.3987 H         1 <0>         0.0712
     31 H12         1.5258   -3.6165   -2.4864 H         1 <0>         0.0947
     32 H13        -0.2857   -2.4083   -1.2194 H         1 <0>         0.0701
     33 H14         1.2856   -2.3857   -0.3827 H         1 <0>         0.0595
     34 H15         0.5303   -0.3648    0.8846 H         1 <0>         0.0590
     35 H16        -1.0206   -0.3811    0.0120 H         1 <0>         0.0606
     36 H17         4.0908   -4.2774   -0.6716 H         1 <0>         0.0657
     37 H18         2.6323   -5.2047   -1.2320 H         1 <0>         0.0685
     38 H19         5.3016   -6.3023   -1.3352 H         1 <0>         0.0537
     39 H20         4.0095   -6.7657   -2.5256 H         1 <0>         0.0977
     40 H21         5.2404   -5.2776   -4.0346 H         1 <0>         0.0620
     41 H22         5.9284   -4.3287   -2.6463 H         1 <0>         0.0793
@<TRIPOS>BOND
     1    1   12 1
     2    1    2 1
     3    1   22 1
     4    1   23 1
     5    2    3 1
     6    2   24 1
     7    2   25 1
     8    3    4 1
     9    3   26 1
    10    3   27 1
    11    4    5 1
    12    4   10 1
    13    4    6 1
    14    6    7 1
    15    6   28 1
    16    6   29 1
    17    7    8 1
    18    7   13 am
    19    8    9 1
    20    8   30 1
    21    8   31 1
    22    9   10 1
    23    9   32 1
    24    9   33 1
    25   10   11 1
    26   10   12 1
    27   12   34 1
    28   12   35 1
    29   13   14 2
    30   13   15 1
    31   15   18 1
    32   15   16 1
    33   15   19 1
    34   16   17 1
    35   16   36 1
    36   16   37 1
    37   17   18 1
    38   17   38 1
    39   17   39 1
    40   18   40 1
    41   18   41 1
    42   19   20 2
    43   19   21 1
@<TRIPOS>MOLECULE
ZINC61957801
   33    34     0     0     0
SMALL
USER_CHARGES

@<TRIPOS>ATOM
      1 C1         -0.0184    1.5028    0.0103 C.3       1 <0>        -0.1107
      2 C2          0.0021   -0.0041    0.0020 C.ar      1 <0>        -0.0947
      3 C3          0.0057   -0.6867   -1.2012 C.ar      1 <0>        -0.1209
      4 C4          0.0239   -2.0665   -1.2145 C.ar      1 <0>        -0.0697
      5 C5          0.0392   -2.7721   -0.0132 C.ar      1 <0>         0.0124
      6 C6          0.0359   -2.0799    1.1954 C.ar      1 <0>        -0.0985
      7 C7          0.0229   -0.6994    1.1973 C.ar      1 <0>        -0.0944
      8 C8          0.0255    0.0511    2.5041 C.3       1 <0>        -0.1117
      9 C9          0.0583   -4.2565   -0.0214 C.2       1 <0>         0.0402
     10 C10         0.0693   -5.0927    1.1086 C.2       1 <0>        -0.1982
     11 C11         0.0858   -6.3830    0.6079 C.2       1 <0>        -0.0177
     12 N1          0.0842   -6.2682   -0.7555 N.pl3     1 <0>        -0.2733
     13 N2          0.0624   -5.0281   -1.0884 N.2       1 <0>        -0.2992
     14 C12         0.0990   -7.3922   -1.6950 C.3       1 <0>         0.0958
     15 C13         0.1024   -7.6277    1.3855 C.2       1 <0>         0.5509
     16 O1          0.1020   -7.5852    2.6087 O.co2     1 <0>        -0.6678
     17 O2          0.1167   -8.7082    0.8107 O.co2     1 <0>        -0.6843
     18 C14         0.0268   -2.8088   -2.5260 C.3       1 <0>        -0.1226
     19 H1          1.0042    1.8801    0.0026 H         1 <0>         0.0656
     20 H2         -0.5455    1.8639   -0.8728 H         1 <0>         0.0615
     21 H3         -0.5286    1.8543    0.9071 H         1 <0>         0.0655
     22 H4         -0.0062   -0.1388   -2.1318 H         1 <0>         0.1179
     23 H5          0.0473   -2.6220    2.1294 H         1 <0>         0.1267
     24 H6         -1.0013    0.2184    2.8291 H         1 <0>         0.0669
     25 H7          0.5545   -0.5329    3.2573 H         1 <0>         0.0656
     26 H8          0.5254    1.0105    2.3711 H         1 <0>         0.0646
     27 H9          0.0660   -4.7924    2.1460 H         1 <0>         0.1499
     28 H10        -0.9249   -7.6846   -1.9279 H         1 <0>         0.0719
     29 H11         0.6088   -7.0934   -2.6109 H         1 <0>         0.0761
     30 H12         0.6241   -8.2348   -1.2453 H         1 <0>         0.1153
     31 H13         1.0551   -2.9741   -2.8477 H         1 <0>         0.0634
     32 H14        -0.4737   -3.7690   -2.4012 H         1 <0>         0.1030
     33 H15        -0.4989   -2.2201   -3.2779 H         1 <0>         0.0507
@<TRIPOS>BOND
     1    1    2 1
     2    1   19 1
     3    1   20 1
     4    1   21 1
     5    2    7 ar
     6    2    3 ar
     7    3    4 ar
     8    3   22 1
     9    4    5 ar
    10    4   18 1
    11    5    6 ar
    12    5    9 1
    13    6    7 ar
    14    6   23 1
    15    7    8 1
    16    8   24 1
    17    8   25 1
    18    8   26 1
    19    9   13 2
    20    9   10 1
    21   10   11 2
    22   10   27 1
    23   11   12 1
    24   11   15 1
    25   12   13 1
    26   12   14 1
    27   14   28 1
    28   14   29 1
    29   14   30 1
    30   15   16 2
    31   15   17 1
    32   18   31 1
    33   18   32 1
    34   18   33 1
@<TRIPOS>MOLECULE
ZINC05182740
   58    61     0     0     0
SMALL
USER_CHARGES
4-[(benzyl-methyl-amino)methyl]-N-cyclopentyl-5-hydroxy-2-methyl-benzofuran-3-carboxamide
@<TRIPOS>ATOM
      1 C1         -2.0739   -1.3085    1.0076 C.3       1 <0>        -0.0997
      2 C2         -0.9470   -0.3843    0.6240 C.2       1 <0>         0.1407
      3 C3          0.3566   -0.7523    0.4953 C.2       1 <0>        -0.2666
      4 C4          1.0828    0.4746    0.1107 C.ar      1 <0>        -0.0552
      5 C5          0.1083    1.4813    0.0471 C.ar      1 <0>         0.0466
      6 O1         -1.0791    0.9206    0.3602 O.3       1 <0>        -0.1693
      7 C6          0.4857    2.7737   -0.2957 C.ar      1 <0>        -0.0411
      8 C7          1.8064    3.0573   -0.5696 C.ar      1 <0>        -0.1211
      9 C8          2.7729    2.0591   -0.5058 C.ar      1 <0>         0.1366
     10 C9          2.4138    0.7670   -0.1664 C.ar      1 <0>        -0.1537
     11 C10         3.4584   -0.3171   -0.0977 C.3       1 <0>         0.0512
     12 C11         3.4333   -0.6918    2.2943 C.3       1 <0>        -0.0488
     13 C12         5.5090   -0.8776    1.0615 C.3       1 <0>         0.0476
     14 C13         6.4085   -0.4093    2.1762 C.ar      1 <0>        -0.1609
     15 C14         7.1581    0.7418    2.0222 C.ar      1 <0>        -0.0940
     16 C15         7.9796    1.1740    3.0465 C.ar      1 <0>        -0.1139
     17 C16         8.0590    0.4495    4.2211 C.ar      1 <0>        -0.0846
     18 C17         7.3137   -0.7048    4.3730 C.ar      1 <0>        -0.1144
     19 C18         6.4883   -1.1341    3.3506 C.ar      1 <0>        -0.0922
     20 O2          4.0720    2.3534   -0.7782 O.3       1 <0>        -0.4974
     21 C19         0.9245   -2.0938    0.6972 C.2       1 <0>         0.5885
     22 O3          1.1925   -2.4782    1.8198 O.2       1 <0>        -0.5205
     23 N1          1.1481   -2.8973   -0.3616 N.am      1 <0>        -0.7153
     24 C20         1.6146   -4.2703   -0.1535 C.3       1 <0>         0.1353
     25 C21         3.1543   -4.2971   -0.0611 C.3       1 <0>        -0.1352
     26 C22         3.5552   -5.6091   -0.7801 C.3       1 <0>        -0.1259
     27 C23         2.5515   -5.6738   -1.9580 C.3       1 <0>        -0.1263
     28 C24         1.2313   -5.1457   -1.3595 C.3       1 <0>        -0.1342
     29 H1         -2.1862   -1.3141    2.0917 H         1 <0>         0.1070
     30 H2         -2.9998   -0.9627    0.5481 H         1 <0>         0.0989
     31 H3         -1.8506   -2.3173    0.6603 H         1 <0>         0.0998
     32 H4         -0.2570    3.5557   -0.3520 H         1 <0>         0.1545
     33 H5          2.0936    4.0638   -0.8356 H         1 <0>         0.1588
     34 H6          2.9728   -1.2923   -0.1320 H         1 <0>         0.1290
     35 H7          4.1388   -0.2201   -0.9437 H         1 <0>         0.1368
     36 H8          3.1938   -1.7432    2.1356 H         1 <0>         0.1327
     37 H9          4.0162   -0.5860    3.2093 H         1 <0>         0.1204
     38 H10         2.5107   -0.1183    2.3830 H         1 <0>         0.1170
     39 H11         5.3561   -1.9535    1.1456 H         1 <0>         0.1342
     40 H12         5.9720   -0.6504    0.1012 H         1 <0>         0.1343
     41 H13         7.0991    1.3057    1.1029 H         1 <0>         0.1316
     42 H14         8.5621    2.0756    2.9278 H         1 <0>         0.1357
     43 H15         8.7037    0.7850    5.0200 H         1 <0>         0.1353
     44 H16         7.3761   -1.2711    5.2905 H         1 <0>         0.1357
     45 H17         5.9060   -2.0359    3.4693 H         1 <0>         0.1310
     46 H18         4.3112    2.2525   -1.7097 H         1 <0>         0.4071
     47 H19         1.0001   -2.5664   -1.2613 H         1 <0>         0.4052
     48 H20         1.1780   -4.6786    0.7580 H         1 <0>         0.0988
     49 H21         3.5822   -3.4353   -0.5733 H         1 <0>         0.0615
     50 H22         3.4736   -4.3201    0.9808 H         1 <0>         0.0719
     51 H23         3.4300   -6.4660   -0.1183 H         1 <0>         0.0753
     52 H24         4.5795   -5.5503   -1.1483 H         1 <0>         0.0726
     53 H25         2.4309   -6.7016   -2.3004 H         1 <0>         0.0751
     54 H26         2.8820   -5.0344   -2.7765 H         1 <0>         0.0681
     55 H27         0.6095   -5.9793   -1.0332 H         1 <0>         0.0817
     56 H28         0.6975   -4.5492   -2.0993 H         1 <0>         0.0738
     57 N2          4.2193   -0.1623    1.1600 N.4       1 <0>        -0.3899
     58 H29         4.4026    0.8355    1.3182 H         1 <0>         0.4300
@<TRIPOS>BOND
     1    1    2 1
     2    1   29 1
     3    1   30 1
     4    1   31 1
     5    2    6 1
     6    2    3 2
     7    3    4 1
     8    3   21 1
     9    4   10 ar
    10    4    5 ar
    11    5    6 1
    12    5    7 ar
    13    7    8 ar
    14    7   32 1
    15    8    9 ar
    16    8   33 1
    17    9   10 ar
    18    9   20 1
    19   10   11 1
    20   11   34 1
    21   11   35 1
    22   11   57 1
    23   12   36 1
    24   12   37 1
    25   12   38 1
    26   12   57 1
    27   13   14 1
    28   13   39 1
    29   13   40 1
    30   13   57 1
    31   14   19 ar
    32   14   15 ar
    33   15   16 ar
    34   15   41 1
    35   16   17 ar
    36   16   42 1
    37   17   18 ar
    38   17   43 1
    39   18   19 ar
    40   18   44 1
    41   19   45 1
    42   20   46 1
    43   21   22 2
    44   21   23 am
    45   23   24 1
    46   23   47 1
    47   24   28 1
    48   24   25 1
    49   24   48 1
    50   25   26 1
    51   25   49 1
    52   25   50 1
    53   26   27 1
    54   26   51 1
    55   26   52 1
    56   27   28 1
    57   27   53 1
    58   27   54 1
    59   28   55 1
    60   28   56 1
    61   57   58 1
@<TRIPOS>MOLECULE
ZINC35476890
   56    59     0     0     0
SMALL
USER_CHARGES

@<TRIPOS>ATOM
      1 C1         -0.0184    1.5028    0.0103 C.3       1 <0>        -0.1433
      2 C2          0.0021   -0.0041    0.0020 C.ar      1 <0>         0.0794
      3 C3          0.0062   -0.7075   -1.1955 C.ar      1 <0>        -0.1724
      4 C4          0.0255   -2.0874   -1.1689 C.ar      1 <0>         0.1533
      5 N1          0.0401   -2.7422   -0.0232 N.ar      1 <0>        -0.5083
      6 C5          0.0364   -2.1079    1.1389 C.ar      1 <0>         0.4499
      7 C6          0.0230   -0.7174    1.1866 C.ar      1 <0>        -0.2074
      8 N2          0.0518   -2.8376    2.3220 N.pl3     1 <0>        -0.6972
      9 C7          0.0478   -2.1424    3.6115 C.3       1 <0>         0.2619
     10 H1          0.6241   -1.2209    3.5293 H         1 <0>         0.1268
     11 C8         -1.3707   -1.8148    4.0011 C.ar      1 <0>         0.0934
     12 C9         -1.7683   -0.4936    4.0848 C.ar      1 <0>        -0.1562
     13 C10        -3.0753   -0.2030    4.4440 C.ar      1 <0>        -0.0639
     14 C11        -3.9374   -1.2569    4.7070 C.ar      1 <0>        -0.1533
     15 C12        -3.4684   -2.5525    4.6028 C.ar      1 <0>         0.1091
     16 N3         -2.2195   -2.7918    4.2531 N.ar      1 <0>        -0.4740
     17 C13         0.6652   -3.0290    4.6621 C.2       1 <0>        -0.1931
     18 C14         1.5829   -2.5197    5.5622 C.2       1 <0>        -0.1021
     19 C15         2.1189   -3.3443    6.4939 C.2       1 <0>        -0.1779
     20 S1          1.3249   -4.8982    6.1178 S.3       1 <0>         0.1860
     21 C16         0.3252   -4.3459    4.7457 C.2       1 <0>         0.0974
     22 N4         -0.5709   -5.0745    3.9608 N.am      1 <0>        -0.6161
     23 C17        -0.7709   -6.3845    4.2064 C.2       1 <0>         0.5536
     24 O1         -0.1712   -6.9319    5.1114 O.2       1 <0>        -0.4872
     25 C18        -1.7193   -7.1558    3.3756 C.ar      1 <0>        -0.1391
     26 C19        -2.4052   -6.5318    2.3320 C.ar      1 <0>        -0.0916
     27 C20        -3.2886   -7.2576    1.5601 C.ar      1 <0>        -0.1253
     28 C21        -3.4956   -8.6011    1.8183 C.ar      1 <0>        -0.0814
     29 C22        -2.8194   -9.2256    2.8513 C.ar      1 <0>        -0.1183
     30 C23        -1.9288   -8.5128    3.6273 C.ar      1 <0>        -0.0494
     31 C24         3.1262   -3.0306    7.5701 C.3       1 <0>        -0.0712
     32 C25         1.9818   -1.0675    5.5073 C.3       1 <0>        -0.1025
     33 H2          1.0042    1.8801    0.0026 H         1 <0>         0.1083
     34 H3         -0.5455    1.8639   -0.8728 H         1 <0>         0.0969
     35 H4         -0.5286    1.8543    0.9071 H         1 <0>         0.0926
     36 H5         -0.0061   -0.1802   -2.1379 H         1 <0>         0.1821
     37 H6          0.0284   -2.6383   -2.0978 H         1 <0>         0.2091
     38 H7          0.0246   -0.2022    2.1358 H         1 <0>         0.1740
     39 H8          0.0651   -3.8071    2.2937 H         1 <0>         0.4110
     40 H9         -1.0695    0.3022    3.8732 H         1 <0>         0.1367
     41 H10        -3.4140    0.8199    4.5178 H         1 <0>         0.1445
     42 H11        -4.9623   -1.0674    4.9899 H         1 <0>         0.1441
     43 H12        -4.1335   -3.3788    4.8060 H         1 <0>         0.1616
     44 H13        -1.0493   -4.6379    3.2388 H         1 <0>         0.4106
     45 H14        -2.2448   -5.4831    2.1297 H         1 <0>         0.1116
     46 H15        -3.8201   -6.7760    0.7527 H         1 <0>         0.1313
     47 H16        -4.1883   -9.1647    1.2110 H         1 <0>         0.1350
     48 H17        -2.9858  -10.2744    3.0478 H         1 <0>         0.1390
     49 H18        -1.3981   -9.0026    4.4303 H         1 <0>         0.1425
     50 H19         2.6054   -2.7209    8.4761 H         1 <0>         0.0816
     51 H20         3.7226   -3.9187    7.7794 H         1 <0>         0.0760
     52 H21         3.7792   -2.2256    7.2331 H         1 <0>         0.0828
     53 H22         1.3140   -0.4831    6.1403 H         1 <0>         0.0741
     54 H23         3.0066   -0.9585    5.8621 H         1 <0>         0.0769
     55 H24         1.9132   -0.7105    4.4797 H         1 <0>         0.0577
     56 H25         0.0536   -3.7120   -0.0328 H         1 <0>         0.4405
@<TRIPOS>BOND
     1    1    2 1
     2    1   33 1
     3    1   34 1
     4    1   35 1
     5    2    7 ar
     6    2    3 ar
     7    3    4 ar
     8    3   36 1
     9    4    5 ar
    10    4   37 1
    11    5    6 ar
    12    5   56 1
    13    6    7 ar
    14    6    8 1
    15    7   38 1
    16    8    9 1
    17    8   39 1
    18    9   10 1
    19    9   11 1
    20    9   17 1
    21   11   16 ar
    22   11   12 ar
    23   12   13 ar
    24   12   40 1
    25   13   14 ar
    26   13   41 1
    27   14   15 ar
    28   14   42 1
    29   15   16 ar
    30   15   43 1
    31   17   21 2
    32   17   18 1
    33   18   19 2
    34   18   32 1
    35   19   20 1
    36   19   31 1
    37   20   21 1
    38   21   22 1
    39   22   23 am
    40   22   44 1
    41   23   24 2
    42   23   25 1
    43   25   30 ar
    44   25   26 ar
    45   26   27 ar
    46   26   45 1
    47   27   28 ar
    48   27   46 1
    49   28   29 ar
    50   28   47 1
    51   29   30 ar
    52   29   48 1
    53   30   49 1
    54   31   50 1
    55   31   51 1
    56   31   52 1
    57   32   53 1
    58   32   54 1
    59   32   55 1
@<TRIPOS>MOLECULE
ZINC39529533
   62    64     0     0     0
SMALL
USER_CHARGES

@<TRIPOS>ATOM
      1 C1         -2.5565    1.7866    0.6283 C.3       1 <0>        -0.1494
      2 C2         -2.6743    0.3215    0.2035 C.3       1 <0>        -0.0871
      3 C3         -3.3683    0.2394   -1.1576 C.3       1 <0>        -0.1596
      4 C4         -1.2772   -0.2939    0.1015 C.3       1 <0>        -0.0740
      5 C5         -1.3976   -1.7689   -0.1831 C.ar      1 <0>        -0.0937
      6 C6         -1.3552   -2.2274   -1.4854 C.ar      1 <0>        -0.0108
      7 C7         -1.4660   -3.5805   -1.7475 C.ar      1 <0>        -0.6449
      8 C8         -1.6192   -4.4792   -0.7075 C.ar      1 <0>        -0.0192
      9 C9         -1.6619   -4.0277    0.5967 C.ar      1 <0>        -0.1365
     10 C10        -1.5455   -2.6693    0.8640 C.ar      1 <0>         0.2002
     11 N1         -1.5830   -2.2095    2.1824 N.pl3     1 <0>        -0.6761
     12 C11        -2.8583   -1.8532    2.8232 C.3       1 <0>         0.1142
     13 C12        -2.9387   -2.5684    4.1759 C.3       1 <0>        -0.0241
     14 N2         -1.7486   -2.2428    4.9721 N.4       1 <0>        -0.5024
     15 C13        -0.5472   -2.7734    4.3155 C.3       1 <0>         0.0726
     16 H1         -0.6660   -3.8443    4.1507 H         1 <0>         0.1526
     17 C14        -0.3489   -2.0738    2.9715 C.3       1 <0>         0.1314
     18 C15         0.6538   -2.5301    5.1927 C.ar      1 <0>        -0.1678
     19 C16         0.6041   -1.5660    6.1811 C.ar      1 <0>        -0.1146
     20 C17         1.7056   -1.3420    6.9858 C.ar      1 <0>        -0.1079
     21 C18         2.8596   -2.0822    6.8041 C.ar      1 <0>        -0.0754
     22 C19         2.9141   -3.0474    5.8177 C.ar      1 <0>        -0.1282
     23 C20         1.8081   -3.2778    5.0122 C.ar      1 <0>         0.1407
     24 O1          1.8574   -4.2308    4.0446 O.3       1 <0>        -0.4928
     25 S1         -1.4126   -4.1610   -3.4102 S.o2      1 <0>         2.4856
     26 O2         -2.1363   -5.3837   -3.3908 O.2       1 <0>        -0.9317
     27 O3         -1.8649   -3.0639   -4.1920 O.2       1 <0>        -0.9268
     28 C21         0.3431   -4.4792   -3.7368 C.3       1 <0>        -0.5646
     29 C22         0.5258   -4.8734   -5.2038 C.3       1 <0>        -0.1494
     30 C23         1.1537   -3.2150   -3.4436 C.3       1 <0>        -0.1455
     31 H2         -3.5518    2.2250    0.7010 H         1 <0>         0.0596
     32 H3         -2.0621    1.8450    1.5980 H         1 <0>         0.0499
     33 H4         -1.9717    2.3335   -0.1112 H         1 <0>         0.0601
     34 H5         -3.2592   -0.2254    0.9430 H         1 <0>         0.0652
     35 H6         -2.8266    0.8510   -1.8791 H         1 <0>         0.0612
     36 H7         -3.3816   -0.7964   -1.4968 H         1 <0>         0.0580
     37 H8         -4.3911    0.6051   -1.0666 H         1 <0>         0.0588
     38 H9         -0.7259    0.1882   -0.7058 H         1 <0>         0.0781
     39 H10        -0.7463   -0.1475    1.0421 H         1 <0>         0.0728
     40 H11        -1.2357   -1.5282   -2.2998 H         1 <0>         0.1469
     41 H12        -1.7058   -5.5354   -0.9157 H         1 <0>         0.1464
     42 H13        -1.7818   -4.7300    1.4084 H         1 <0>         0.1319
     43 H14        -2.9029   -0.7749    2.9758 H         1 <0>         0.0850
     44 H15        -3.6874   -2.1712    2.1910 H         1 <0>         0.1202
     45 H16        -3.8323   -2.2412    4.7075 H         1 <0>         0.1450
     46 H17        -2.9851   -3.6455    4.0154 H         1 <0>         0.1354
     47 H18        -1.6678   -1.2409    5.0597 H         1 <0>         0.4245
     48 H19         0.4803   -2.5375    2.4373 H         1 <0>         0.1128
     49 H20        -0.1357   -1.0181    3.1393 H         1 <0>         0.0832
     50 H21        -0.2960   -0.9867    6.3250 H         1 <0>         0.1204
     51 H22         1.6650   -0.5875    7.7575 H         1 <0>         0.1401
     52 H23         3.7189   -1.9050    7.4338 H         1 <0>         0.1422
     53 H24         3.8156   -3.6252    5.6762 H         1 <0>         0.1445
     54 H25         2.1702   -3.9067    3.1889 H         1 <0>         0.3992
     55 H26         0.6906   -5.2901   -3.0967 H         1 <0>         0.1398
     56 H27         0.1783   -4.0624   -5.8439 H         1 <0>         0.0782
     57 H28         1.5808   -5.0646   -5.4000 H         1 <0>         0.0892
     58 H29        -0.0517   -5.7740   -5.4126 H         1 <0>         0.0751
     59 H30         2.2087   -3.4062   -3.6398 H         1 <0>         0.0840
     60 H31         0.8062   -2.4041   -4.0837 H         1 <0>         0.0787
     61 H32         1.0235   -2.9342   -2.3985 H         1 <0>         0.0669
     62 H33        -1.8373   -2.6522    5.8900 H         1 <0>         0.4323
@<TRIPOS>BOND
     1    1    2 1
     2    1   31 1
     3    1   32 1
     4    1   33 1
     5    2    3 1
     6    2    4 1
     7    2   34 1
     8    3   35 1
     9    3   36 1
    10    3   37 1
    11    4    5 1
    12    4   38 1
    13    4   39 1
    14    5   10 ar
    15    5    6 ar
    16    6    7 ar
    17    6   40 1
    18    7    8 ar
    19    7   25 1
    20    8    9 ar
    21    8   41 1
    22    9   10 ar
    23    9   42 1
    24   10   11 1
    25   11   17 1
    26   11   12 1
    27   12   13 1
    28   12   43 1
    29   12   44 1
    30   13   14 1
    31   13   45 1
    32   13   46 1
    33   14   15 1
    34   14   47 1
    35   14   62 1
    36   15   16 1
    37   15   17 1
    38   15   18 1
    39   17   48 1
    40   17   49 1
    41   18   23 ar
    42   18   19 ar
    43   19   20 ar
    44   19   50 1
    45   20   21 ar
    46   20   51 1
    47   21   22 ar
    48   21   52 1
    49   22   23 ar
    50   22   53 1
    51   23   24 1
    52   24   54 1
    53   25   26 2
    54   25   27 2
    55   25   28 1
    56   28   29 1
    57   28   30 1
    58   28   55 1
    59   29   56 1
    60   29   57 1
    61   29   58 1
    62   30   59 1
    63   30   60 1
    64   30   61 1
@<TRIPOS>MOLECULE
ZINC45841504
   55    57     0     0     0
SMALL
USER_CHARGES

@<TRIPOS>ATOM
      1 C1         -0.8652    1.3897    0.1971 C.3       1 <0>        -0.1222
      2 C2         -0.6364   -0.0988    0.1426 C.ar      1 <0>        -0.0690
      3 C3         -1.2895   -0.8629   -0.8072 C.ar      1 <0>        -0.0949
      4 C4         -1.0827   -2.2274   -0.8600 C.ar      1 <0>        -0.1092
      5 C5         -0.2173   -2.8326    0.0416 C.ar      1 <0>         0.1265
      6 C6          0.4381   -2.0625    0.9946 C.ar      1 <0>        -0.0523
      7 C7          0.2305   -0.6966    1.0385 C.ar      1 <0>        -0.0894
      8 Cl1         1.5211   -2.8138    2.1243 Cl        1 <0>        -0.0557
      9 N1         -0.0059   -4.2154   -0.0091 N.am      1 <0>        -0.6375
     10 C8         -0.2270   -4.8893   -1.1552 C.2       1 <0>         0.5068
     11 O1         -0.5163   -4.2865   -2.1671 O.2       1 <0>        -0.5041
     12 C9         -0.1147   -6.3920   -1.1794 C.3       1 <0>         0.0073
     13 H1          0.8097   -6.6952   -0.6878 H         1 <0>         0.1649
     14 C10        -1.3082   -7.0045   -0.4437 C.3       1 <0>        -0.1817
     15 N2         -0.1050   -6.8599   -2.5718 N.4       1 <0>        -0.3682
     16 C11        -0.1097   -8.3276   -2.5932 C.3       1 <0>        -0.0174
     17 C12        -0.1815   -8.8201   -4.0402 C.3       1 <0>        -0.1400
     18 C13         1.0352   -8.3006   -4.8115 C.3       1 <0>        -0.1327
     19 C14         1.0710   -6.7724   -4.7197 C.3       1 <0>        -0.1253
     20 H2          0.1846   -6.3580   -5.2000 H         1 <0>         0.1256
     21 C15         1.0965   -6.3557   -3.2476 C.3       1 <0>         0.0024
     22 C16         2.3062   -6.2555   -5.4113 C.2       1 <0>         0.5240
     23 O2          3.1256   -5.6131   -4.7893 O.2       1 <0>        -0.5087
     24 N3          2.5003   -6.5072   -6.7211 N.am      1 <0>        -0.6605
     25 C17         3.6898   -6.1091   -7.3412 C.ar      1 <0>         0.1283
     26 C18         3.6785   -5.6935   -8.6662 C.ar      1 <0>        -0.1383
     27 C19         4.8542   -5.3012   -9.2754 C.ar      1 <0>        -0.0982
     28 C20         6.0419   -5.3220   -8.5675 C.ar      1 <0>        -0.1229
     29 C21         6.0566   -5.7357   -7.2481 C.ar      1 <0>        -0.1006
     30 C22         4.8833   -6.1234   -6.6313 C.ar      1 <0>        -0.1176
     31 H3         -0.1429    1.8922   -0.4462 H         1 <0>         0.0801
     32 H4         -1.8752    1.6148   -0.1456 H         1 <0>         0.0752
     33 H5         -0.7432    1.7388    1.2224 H         1 <0>         0.0747
     34 H6         -1.9626   -0.3920   -1.5084 H         1 <0>         0.1388
     35 H7         -1.5938   -2.8233   -1.6017 H         1 <0>         0.1546
     36 H8          0.7427   -0.0964    1.7760 H         1 <0>         0.1449
     37 H9          0.2996   -4.6886    0.7806 H         1 <0>         0.4204
     38 H10        -1.2270   -8.0913   -0.4612 H         1 <0>         0.1037
     39 H11        -1.3153   -6.6573    0.5895 H         1 <0>         0.1131
     40 H12        -2.2326   -6.7013   -0.9353 H         1 <0>         0.0928
     41 H13         0.8029   -8.7002   -2.1279 H         1 <0>         0.1348
     42 H14        -0.9744   -8.6958   -2.0412 H         1 <0>         0.1410
     43 H15        -0.1830   -9.9100   -4.0540 H         1 <0>         0.1229
     44 H16        -1.0939   -8.4483   -4.5064 H         1 <0>         0.0941
     45 H17         1.9457   -8.7133   -4.3769 H         1 <0>         0.0919
     46 H18         0.9600   -8.6014   -5.8565 H         1 <0>         0.1020
     47 H19         1.1222   -5.2682   -3.1786 H         1 <0>         0.1474
     48 H20         1.9833   -6.7703   -2.7683 H         1 <0>         0.1380
     49 H21         1.8155   -6.9643   -7.2338 H         1 <0>         0.4133
     50 H22         2.7513   -5.6773   -9.2198 H         1 <0>         0.1272
     51 H23         4.8461   -4.9782  -10.3060 H         1 <0>         0.1316
     52 H24         6.9600   -5.0147   -9.0461 H         1 <0>         0.1290
     53 H25         6.9859   -5.7512   -6.6980 H         1 <0>         0.1294
     54 H26         4.8946   -6.4415   -5.5993 H         1 <0>         0.1308
     55 H27        -0.9261   -6.5160   -3.0468 H         1 <0>         0.4291
@<TRIPOS>BOND
     1    1    2 1
     2    1   31 1
     3    1   32 1
     4    1   33 1
     5    2    7 ar
     6    2    3 ar
     7    3    4 ar
     8    3   34 1
     9    4    5 ar
    10    4   35 1
    11    5    6 ar
    12    5    9 1
    13    6    7 ar
    14    6    8 1
    15    7   36 1
    16    9   10 am
    17    9   37 1
    18   10   11 2
    19   10   12 1
    20   12   13 1
    21   12   14 1
    22   12   15 1
    23   14   38 1
    24   14   39 1
    25   14   40 1
    26   15   21 1
    27   15   16 1
    28   15   55 1
    29   16   17 1
    30   16   41 1
    31   16   42 1
    32   17   18 1
    33   17   43 1
    34   17   44 1
    35   18   19 1
    36   18   45 1
    37   18   46 1
    38   19   20 1
    39   19   21 1
    40   19   22 1
    41   21   47 1
    42   21   48 1
    43   22   23 2
    44   22   24 am
    45   24   25 1
    46   24   49 1
    47   25   30 ar
    48   25   26 ar
    49   26   27 ar
    50   26   50 1
    51   27   28 ar
    52   27   51 1
    53   28   29 ar
    54   28   52 1
    55   29   30 ar
    56   29   53 1
    57   30   54 1
@<TRIPOS>MOLECULE
ZINC63264729
   59    62     0     0     0
SMALL
USER_CHARGES

@<TRIPOS>ATOM
      1 C1         -0.0622    1.3532   -0.0726 C.3       1 <0>        -0.1200
      2 C2         -0.0230   -0.1511    0.0089 C.ar      1 <0>        -0.0708
      3 C3         -0.0256   -0.9054   -1.1478 C.ar      1 <0>        -0.1660
      4 C4          0.0110   -2.2915   -1.0727 C.ar      1 <0>         0.1792
      5 C5          0.0502   -2.9189    0.1659 C.ar      1 <0>        -0.1678
      6 C6          0.0528   -2.1644    1.3220 C.ar      1 <0>        -0.0817
      7 C7          0.0215   -0.7782    1.2465 C.ar      1 <0>         0.1344
      8 N1          0.0300   -0.0120    2.4206 N.am      1 <0>        -0.6827
      9 C8         -0.4389   -0.5357    3.5705 C.2       1 <0>         0.7064
     10 O1         -0.8031   -1.6953    3.6064 O.2       1 <0>        -0.5564
     11 N2         -0.5041    0.2258    4.6806 N.am      1 <0>        -0.7198
     12 C9         -1.1147   -0.3084    5.9004 C.3       1 <0>         0.2083
     13 C10        -0.7435    0.4765    7.1697 C.3       1 <0>        -0.1298
     14 C11         0.4675   -0.4622    7.3011 C.3       1 <0>        -0.1423
     15 C12        -0.3466   -1.4956    6.5048 C.3       1 <0>        -0.1337
     16 C13        -2.5936   -0.5580    5.7536 C.ar      1 <0>        -0.0833
     17 C14        -3.2579   -1.3379    6.6818 C.ar      1 <0>        -0.0809
     18 C15        -4.6142   -1.5671    6.5485 C.ar      1 <0>        -0.1484
     19 C16        -5.3077   -1.0152    5.4848 C.ar      1 <0>         0.0983
     20 C17        -4.6414   -0.2342    4.5558 C.ar      1 <0>        -0.1518
     21 C18        -3.2861   -0.0021    4.6941 C.ar      1 <0>        -0.0746
     22 F1         -6.6336   -1.2390    5.3532 F         1 <0>        -0.1387
     23 N3          0.0079   -3.0560   -2.2445 N.pl3     1 <0>        -0.6453
     24 C19        -0.1454   -2.4201   -3.5622 C.3       1 <0>         0.1000
     25 C20         0.9717   -2.9283   -4.4797 C.3       1 <0>        -0.0231
     26 N4          0.9500   -4.3962   -4.5089 N.4       1 <0>        -0.3838
     27 C21         1.2611   -4.9276   -3.1760 C.3       1 <0>        -0.0225
     28 C22         0.1641   -4.5180   -2.1943 C.3       1 <0>         0.0997
     29 C23         1.9481   -4.8798   -5.4722 C.3       1 <0>        -0.0468
     30 H1          0.9554    1.7414   -0.1163 H         1 <0>         0.0755
     31 H2         -0.6048    1.6545   -0.9686 H         1 <0>         0.0733
     32 H3         -0.5656    1.7518    0.8082 H         1 <0>         0.0670
     33 H4         -0.0564   -0.4174   -2.1108 H         1 <0>         0.1252
     34 H5          0.0784   -3.9969    0.2246 H         1 <0>         0.1244
     35 H6          0.0829   -2.6522    2.2851 H         1 <0>         0.1617
     36 H7          0.3734    0.8951    2.4053 H         1 <0>         0.4071
     37 H8         -0.1467    1.1275    4.6718 H         1 <0>         0.4018
     38 H9         -0.4724    1.5146    6.9775 H         1 <0>         0.0779
     39 H10        -1.4683    0.3697    7.9767 H         1 <0>         0.1026
     40 H11         1.3544   -0.1068    6.7764 H         1 <0>         0.0814
     41 H12         0.6749   -0.7663    8.3271 H         1 <0>         0.0771
     42 H13        -0.9629   -2.1416    7.1301 H         1 <0>         0.0951
     43 H14         0.2449   -2.0496    5.7759 H         1 <0>         0.0808
     44 H15        -2.7166   -1.7686    7.5113 H         1 <0>         0.1356
     45 H16        -5.1329   -2.1768    7.2736 H         1 <0>         0.1385
     46 H17        -5.1813    0.1965    3.7255 H         1 <0>         0.1328
     47 H18        -2.7669    0.6108    3.9721 H         1 <0>         0.1217
     48 H19        -1.1149   -2.6831   -3.9852 H         1 <0>         0.0864
     49 H20        -0.0695   -1.3378   -3.4576 H         1 <0>         0.1255
     50 H21         0.8181   -2.5423   -5.4874 H         1 <0>         0.1400
     51 H22         1.9355   -2.5865   -4.1024 H         1 <0>         0.1319
     52 H23         1.3208   -6.0150   -3.2231 H         1 <0>         0.1407
     53 H24         2.2162   -4.5254   -2.8382 H         1 <0>         0.1319
     54 H25         0.4444   -4.8219   -1.1858 H         1 <0>         0.1266
     55 H26        -0.7737   -4.9964   -2.4769 H         1 <0>         0.0861
     56 H27         2.9382   -4.5363   -5.1727 H         1 <0>         0.1213
     57 H28         1.9329   -5.9694   -5.4949 H         1 <0>         0.1249
     58 H29         1.7136   -4.4924   -6.4637 H         1 <0>         0.1247
     59 H30         0.0339   -4.7122   -4.7903 H         1 <0>         0.4247
@<TRIPOS>BOND
     1    1    2 1
     2    1   30 1
     3    1   31 1
     4    1   32 1
     5    2    7 ar
     6    2    3 ar
     7    3    4 ar
     8    3   33 1
     9    4    5 ar
    10    4   23 1
    11    5    6 ar
    12    5   34 1
    13    6    7 ar
    14    6   35 1
    15    7    8 1
    16    8    9 am
    17    8   36 1
    18    9   10 2
    19    9   11 am
    20   11   12 1
    21   11   37 1
    22   12   15 1
    23   12   13 1
    24   12   16 1
    25   13   14 1
    26   13   38 1
    27   13   39 1
    28   14   15 1
    29   14   40 1
    30   14   41 1
    31   15   42 1
    32   15   43 1
    33   16   21 ar
    34   16   17 ar
    35   17   18 ar
    36   17   44 1
    37   18   19 ar
    38   18   45 1
    39   19   20 ar
    40   19   22 1
    41   20   21 ar
    42   20   46 1
    43   21   47 1
    44   23   28 1
    45   23   24 1
    46   24   25 1
    47   24   48 1
    48   24   49 1
    49   25   26 1
    50   25   50 1
    51   25   51 1
    52   26   27 1
    53   26   29 1
    54   26   59 1
    55   27   28 1
    56   27   52 1
    57   27   53 1
    58   28   54 1
    59   28   55 1
    60   29   56 1
    61   29   57 1
    62   29   58 1
@<TRIPOS>MOLECULE
ZINC04281248
   50    52     0     0     0
SMALL
USER_CHARGES
N-(9-cyano-3,3,5,5-tetramethyl-7-thia-4-azabicyclo[4.3.0]nona-8,10-dien-8-yl)-3-phenyl-prop-2-enamide
@<TRIPOS>ATOM
      1 C1         -0.0127    1.0858    0.0080 C.3       1 <0>        -0.1707
      2 C2         -0.7293    1.5795    1.2676 C.3       1 <0>         0.0648
      3 C3         -2.1387    0.9808    1.3145 C.3       1 <0>        -0.0709
      4 C4         -2.9740    1.6419    0.2272 C.2       1 <0>        -0.0278
      5 C5         -4.1127    1.0427   -0.4377 C.2       1 <0>        -0.1368
      6 C6         -4.7681    1.8057   -1.3965 C.2       1 <0>         0.1208
      7 S1         -3.8738    3.2896   -1.4008 S.3       1 <0>         0.3496
      8 C7         -2.6660    2.8990   -0.1676 C.2       1 <0>        -0.2946
      9 C8         -1.5452    3.7465    0.3410 C.3       1 <0>         0.1689
     10 C9         -2.1543    4.9984    1.0038 C.3       1 <0>        -0.1808
     11 C10        -0.6738    4.2114   -0.8316 C.3       1 <0>        -0.1762
     12 N1         -5.8708    1.4614   -2.1626 N.am      1 <0>        -0.6151
     13 C11        -6.3746    2.3402   -3.0516 C.2       1 <0>         0.5561
     14 O1         -5.8614    3.4361   -3.1817 O.2       1 <0>        -0.5009
     15 C12        -7.5388    1.9766   -3.8605 C.2       1 <0>        -0.2474
     16 C13        -8.0430    2.8559   -4.7501 C.2       1 <0>         0.0350
     17 C14        -9.2139    2.4903   -5.5636 C.ar      1 <0>        -0.1014
     18 C15        -9.8028    1.2299   -5.4212 C.ar      1 <0>        -0.0921
     19 C16       -10.9024    0.8966   -6.1835 C.ar      1 <0>        -0.1240
     20 C17       -11.4168    1.8018   -7.0953 C.ar      1 <0>        -0.0929
     21 C18       -10.8364    3.0492   -7.2459 C.ar      1 <0>        -0.1232
     22 C19        -9.7396    3.3994   -6.4871 C.ar      1 <0>        -0.0830
     23 C20        -4.5567   -0.2824   -0.1248 C.1       1 <0>         0.2503
     24 N2         -4.9089   -1.3336    0.1234 N.1       1 <0>        -0.3951
     25 C21         0.0475    1.0474    2.4881 C.3       1 <0>        -0.1825
     26 H1          0.0021   -0.0041    0.0020 H         1 <0>         0.1045
     27 H2          1.0099    1.4631    0.0003 H         1 <0>         0.0832
     28 H3         -0.5399    1.4469   -0.8751 H         1 <0>         0.0842
     29 H4         -2.0794   -0.0940    1.1438 H         1 <0>         0.1203
     30 H5         -2.5849    1.1726    2.2910 H         1 <0>         0.1093
     31 H6         -1.3540    5.6419    1.3691 H         1 <0>         0.0901
     32 H7         -2.7525    5.5420    0.2725 H         1 <0>         0.1073
     33 H8         -2.7870    4.6962    1.8383 H         1 <0>         0.0864
     34 H9         -0.2154    3.3456   -1.3093 H         1 <0>         0.0874
     35 H10        -1.2922    4.7412   -1.5561 H         1 <0>         0.1070
     36 H11         0.1058    4.8781   -0.4629 H         1 <0>         0.0913
     37 H12        -6.2798    0.5879   -2.0589 H         1 <0>         0.4295
     38 H13        -7.9942    1.0041   -3.7451 H         1 <0>         0.1404
     39 H14        -7.5876    3.8284   -4.8655 H         1 <0>         0.1421
     40 H15        -9.3999    0.5210   -4.7130 H         1 <0>         0.1274
     41 H16       -11.3610   -0.0747   -6.0715 H         1 <0>         0.1301
     42 H17       -12.2760    1.5336   -7.6923 H         1 <0>         0.1299
     43 H18       -11.2434    3.7500   -7.9598 H         1 <0>         0.1317
     44 H19        -9.2879    4.3732   -6.6054 H         1 <0>         0.1315
     45 H20         1.0696    1.4250    2.4610 H         1 <0>         0.0860
     46 H21        -0.4398    1.3832    3.4034 H         1 <0>         0.0828
     47 H22         0.0618   -0.0422    2.4627 H         1 <0>         0.1071
     48 N3         -0.7183    3.0607    1.3741 N.4       1 <0>        -0.5077
     49 H23         0.2515    3.3844    1.2794 H         1 <0>         0.4355
     50 H24        -1.0770    3.3208    2.3004 H         1 <0>         0.4325
@<TRIPOS>BOND
     1    1    2 1
     2    1   26 1
     3    1   27 1
     4    1   28 1
     5    2    3 1
     6    2   25 1
     7    2   48 1
     8    3    4 1
     9    3   29 1
    10    3   30 1
    11    4    8 2
    12    4    5 1
    13    5    6 2
    14    5   23 1
    15    6    7 1
    16    6   12 1
    17    7    8 1
    18    8    9 1
    19    9   10 1
    20    9   11 1
    21    9   48 1
    22   10   31 1
    23   10   32 1
    24   10   33 1
    25   11   34 1
    26   11   35 1
    27   11   36 1
    28   12   13 am
    29   12   37 1
    30   13   14 2
    31   13   15 1
    32   15   16 2
    33   15   38 1
    34   16   17 1
    35   16   39 1
    36   17   22 ar
    37   17   18 ar
    38   18   19 ar
    39   18   40 1
    40   19   20 ar
    41   19   41 1
    42   20   21 ar
    43   20   42 1
    44   21   22 ar
    45   21   43 1
    46   22   44 1
    47   23   24 3
    48   25   45 1
    49   25   46 1
    50   25   47 1
    51   48   49 1
    52   48   50 1
@<TRIPOS>MOLECULE
ZINC06584691
   30    32     0     0     0
SMALL
USER_CHARGES
4,6,7-trichloro-2-(2-pyridylamino)-2,3-dihydrobenzofuran-5-ol
@<TRIPOS>ATOM
      1 C1          2.7996   -6.0968    2.1189 C.ar      1 <0>         0.0523
      2 C2          3.3481   -7.1567    1.4085 C.ar      1 <0>        -0.1629
      3 C3          3.8813   -6.9273    0.1563 C.ar      1 <0>         0.1577
      4 C4          3.3617   -4.6817    0.2747 C.ar      1 <0>         0.4574
      5 C5          2.8129   -4.8393    1.5435 C.ar      1 <0>        -0.1968
      6 N1          3.3762   -3.4245   -0.3182 N.pl3     1 <0>        -0.6930
      7 C6          2.8099   -2.2740    0.3902 C.3       1 <0>         0.3009
      8 H1          2.8565   -2.4252    1.4686 H         1 <0>         0.1414
      9 C7          3.5349   -0.9692   -0.0161 C.3       1 <0>        -0.1064
     10 C8          2.3982    0.0348   -0.0140 C.ar      1 <0>        -0.1419
     11 C9          1.2142   -0.6906   -0.0118 C.ar      1 <0>         0.1285
     12 C10         0.0021   -0.0041    0.0020 C.ar      1 <0>        -0.0297
     13 C11        -0.0167    1.3773    0.0096 C.ar      1 <0>        -0.0192
     14 C12         1.1719    2.0929    0.0021 C.ar      1 <0>         0.1292
     15 C13         2.3828    1.4131   -0.0100 C.ar      1 <0>        -0.0019
     16 Cl1         3.8759    2.2986   -0.0202 Cl        1 <0>        -0.0138
     17 O1          1.1512    3.4530    0.0061 O.3       1 <0>        -0.4608
     18 Cl2        -1.5337    2.2212    0.0214 Cl        1 <0>         0.0077
     19 Cl3        -1.4918   -0.8884    0.0092 Cl        1 <0>        -0.0120
     20 O2          1.4573   -2.0313   -0.0322 O.3       1 <0>        -0.2940
     21 H2          2.3764   -6.2503    3.1007 H         1 <0>         0.1784
     22 H3          3.3576   -8.1502    1.8318 H         1 <0>         0.1870
     23 H4          4.3089   -7.7486   -0.3995 H         1 <0>         0.1994
     24 H5          2.3990   -3.9920    2.0699 H         1 <0>         0.1811
     25 H6          3.7614   -3.3090   -1.2010 H         1 <0>         0.4246
     26 H7          4.2936   -0.7001    0.7189 H         1 <0>         0.1250
     27 H8          3.9725   -1.0600   -1.0102 H         1 <0>         0.1150
     28 H9          1.1523    3.8438    0.8907 H         1 <0>         0.4051
     29 N2          3.9062   -5.7066   -0.4426 N.ar      1 <0>        -0.5291
     30 H10         4.3095   -5.5651   -1.3761 H         1 <0>         0.4709
@<TRIPOS>BOND
     1    1    5 ar
     2    1    2 ar
     3    1   21 1
     4    2    3 ar
     5    2   22 1
     6    3   23 1
     7    3   29 ar
     8    4    5 ar
     9    4    6 1
    10    4   29 ar
    11    5   24 1
    12    6    7 1
    13    6   25 1
    14    7    8 1
    15    7   20 1
    16    7    9 1
    17    9   10 1
    18    9   26 1
    19    9   27 1
    20   10   15 ar
    21   10   11 ar
    22   11   12 ar
    23   11   20 1
    24   12   13 ar
    25   12   19 1
    26   13   14 ar
    27   13   18 1
    28   14   15 ar
    29   14   17 1
    30   15   16 1
    31   17   28 1
    32   29   30 1
@<TRIPOS>MOLECULE
ZINC19969215
   33    34     0     0     0
SMALL
USER_CHARGES
(R)-(2-bromo-4-fluoro-phenyl)-(2-methyl-5-nitro-phenyl)methanamine
@<TRIPOS>ATOM
      1 C1          1.2852    2.1463   -2.5840 C.3       1 <0>        -0.1416
      2 C2          1.3629    1.3890   -1.2834 C.ar      1 <0>        -0.0111
      3 C3          1.7093    0.0506   -1.2825 C.ar      1 <0>        -0.1071
      4 C4          1.7814   -0.6437   -0.0896 C.ar      1 <0>        -0.0174
      5 C5          1.5067    0.0001    1.1027 C.ar      1 <0>        -0.0419
      6 C6          1.1600    1.3380    1.1017 C.ar      1 <0>        -0.0187
      7 C7          1.0883    2.0327   -0.0915 C.ar      1 <0>        -0.1552
      8 C8          0.7099    3.4914   -0.0926 C.3       1 <0>         0.1432
      9 H1          1.3432    4.0467   -0.8001 H         1 <0>         0.1623
     10 C9          0.8686    4.0526    1.2969 C.ar      1 <0>        -0.1369
     11 C10        -0.2214    4.1159    2.1451 C.ar      1 <0>        -0.0902
     12 C11        -0.0771    4.6298    3.4196 C.ar      1 <0>        -0.1195
     13 C12         1.1599    5.0818    3.8479 C.ar      1 <0>         0.1475
     14 C13         2.2511    5.0183    2.9985 C.ar      1 <0>        -0.1128
     15 C14         2.1058    4.4987    1.7250 C.ar      1 <0>        -0.0411
     16 Br1         3.5975    4.4043    0.5666 Br        1 <0>        -0.0025
     17 F1          1.3015    5.5848    5.0937 F         1 <0>        -0.1109
     18 N1         -0.6878    3.6343   -0.5218 N.4       1 <0>        -0.6856
     19 N2          1.5835   -0.7436    2.3802 N.pl3     1 <0>         0.0187
     20 O1          1.3411   -0.1766    3.4305 O.2       1 <0>        -0.1472
     21 O2          1.8890   -1.9227    2.3810 O.3       1 <0>        -0.1339
     22 H2          1.5351    1.4720   -3.4164 H         1 <0>         0.1012
     23 H3          1.9981    2.9837   -2.5638 H         1 <0>         0.0962
     24 H4          0.2657    2.5359   -2.7211 H         1 <0>         0.0709
     25 H5          1.9238   -0.4523   -2.2139 H         1 <0>         0.1630
     26 H6          2.0520   -1.6893   -0.0889 H         1 <0>         0.1679
     27 H7          0.9407    1.8397    2.0326 H         1 <0>         0.1607
     28 H8         -1.1862    3.7638    1.8111 H         1 <0>         0.1408
     29 H9         -0.9290    4.6794    4.0816 H         1 <0>         0.1610
     30 H10         3.2162    5.3705    3.3315 H         1 <0>         0.1628
     31 H11        -0.9641    4.6990   -0.5226 H         1 <0>         0.4665
     32 H12        -1.3422    3.0862    0.1720 H         1 <0>         0.4543
     33 H13        -0.8036    3.2246   -1.5361 H         1 <0>         0.4566
@<TRIPOS>BOND
     1    1    2 1
     2    1   22 1
     3    1   23 1
     4    1   24 1
     5    2    7 ar
     6    2    3 ar
     7    3    4 ar
     8    3   25 1
     9    4    5 ar
    10    4   26 1
    11    5    6 ar
    12    5   19 1
    13    6    7 ar
    14    6   27 1
    15    7    8 1
    16    8    9 1
    17    8   10 1
    18    8   18 1
    19   10   15 ar
    20   10   11 ar
    21   11   12 ar
    22   11   28 1
    23   12   13 ar
    24   12   29 1
    25   13   14 ar
    26   13   17 1
    27   14   15 ar
    28   14   30 1
    29   15   16 1
    30   18   31 1
    31   18   32 1
    32   18   33 1
    33   19   20 2
    34   19   21 1
@<TRIPOS>MOLECULE
ZINC31973925
   41    44     0     0     0
SMALL
USER_CHARGES
[(6S)-2-(4-chlorophenyl)-6-methyl-5,6,7,8-tetrahydroimidazo[2,1-b][1,3]benzothiazol-1-yl]methanamine
@<TRIPOS>ATOM
      1 C1         10.8720   -2.8644   -2.5813 C.3       1 <0>        -0.1543
      2 C2          9.6659   -2.2551   -1.8638 C.3       1 <0>        -0.0874
      3 H1         10.0242   -1.4974   -1.1514 H         1 <0>         0.0839
      4 C3          8.7296   -1.6092   -2.8895 C.3       1 <0>        -0.1202
      5 C4          7.6535   -0.7944   -2.1716 C.3       1 <0>        -0.0472
      6 C5          6.9733   -1.6814   -1.1312 C.2       1 <0>         0.0176
      7 C6          7.5685   -2.8011   -0.7037 C.2       1 <0>        -0.1182
      8 S1          6.4203   -3.4724    0.4704 S.3       1 <0>         0.1942
      9 C7          5.1845   -2.2013    0.3276 C.2       1 <0>         0.2100
     10 N1          5.7284   -1.3572   -0.6008 N.pl3     1 <0>        -0.4125
     11 C8          4.7957   -0.3374   -0.7525 C.2       1 <0>        -0.1057
     12 C9          3.7559   -0.6079    0.0738 C.2       1 <0>         0.1477
     13 N2          4.0289   -1.7566    0.7272 N.2       1 <0>        -0.4264
     14 C10         2.5342    0.2179    0.2361 C.ar      1 <0>        -0.0251
     15 C11         1.9148    0.7770   -0.8801 C.ar      1 <0>        -0.1019
     16 C12         0.7789    1.5447   -0.7238 C.ar      1 <0>        -0.1032
     17 C13         0.2546    1.7602    0.5393 C.ar      1 <0>        -0.0204
     18 C14         0.8661    1.2069    1.6513 C.ar      1 <0>        -0.0948
     19 C15         2.0022    0.4374    1.5055 C.ar      1 <0>        -0.0619
     20 Cl1        -1.1702    2.7334    0.7301 Cl        1 <0>        -0.0438
     21 C16         4.9184    0.8525   -1.6690 C.3       1 <0>         0.0857
     22 N3          4.4031    0.5014   -2.9991 N.4       1 <0>        -0.6911
     23 C17         8.8932   -3.3551   -1.1205 C.3       1 <0>        -0.0434
     24 H2         11.4215   -2.0727   -3.1117 H         1 <0>         0.0656
     25 H3         10.5263   -3.6182   -3.3040 H         1 <0>         0.0620
     26 H4         11.5353   -3.3403   -1.8440 H         1 <0>         0.0664
     27 H5          9.3090   -0.9448   -3.5475 H         1 <0>         0.0885
     28 H6          8.2487   -2.3938   -3.4922 H         1 <0>         0.0769
     29 H7          8.1183    0.0707   -1.6760 H         1 <0>         0.0948
     30 H8          6.9110   -0.4427   -2.9030 H         1 <0>         0.0588
     31 H9          2.3230    0.6095   -1.8659 H         1 <0>         0.1030
     32 H10         0.2982    1.9785   -1.5881 H         1 <0>         0.1453
     33 H11         0.4533    1.3779    2.6345 H         1 <0>         0.1480
     34 H12         2.4786    0.0062    2.3735 H         1 <0>         0.1447
     35 H13         4.3365    1.6917   -1.2602 H         1 <0>         0.1560
     36 H14         5.9757    1.1448   -1.7508 H         1 <0>         0.1392
     37 H15         4.4927    1.3700   -3.6680 H         1 <0>         0.4630
     38 H16         3.3458    0.2091   -2.9173 H         1 <0>         0.4488
     39 H17         8.7476   -4.2165   -1.7889 H         1 <0>         0.1048
     40 H18         9.4648   -3.6705   -0.2352 H         1 <0>         0.1032
     41 H19         4.9850   -0.3378   -3.4079 H         1 <0>         0.4496
@<TRIPOS>BOND
     1    1    2 1
     2    1   24 1
     3    1   25 1
     4    1   26 1
     5    2    3 1
     6    2   23 1
     7    2    4 1
     8    4    5 1
     9    4   27 1
    10    4   28 1
    11    5    6 1
    12    5   29 1
    13    5   30 1
    14    6   10 1
    15    6    7 2
    16    7    8 1
    17    7   23 1
    18    8    9 1
    19    9   13 2
    20    9   10 1
    21   10   11 1
    22   11   12 2
    23   11   21 1
    24   12   13 1
    25   12   14 1
    26   14   19 ar
    27   14   15 ar
    28   15   16 ar
    29   15   31 1
    30   16   17 ar
    31   16   32 1
    32   17   18 ar
    33   17   20 1
    34   18   19 ar
    35   18   33 1
    36   19   34 1
    37   21   22 1
    38   21   35 1
    39   21   36 1
    40   22   37 1
    41   22   38 1
    42   22   41 1
    43   23   39 1
    44   23   40 1
@<TRIPOS>MOLECULE
ZINC42167144
   35    36     0     0     0
SMALL
USER_CHARGES

@<TRIPOS>ATOM
      1 C1         -1.2652    1.1827    0.1811 C.3       1 <0>        -0.1203
      2 C2         -0.5843   -0.1582    0.0843 C.ar      1 <0>        -0.0950
      3 C3         -0.5692   -0.8408   -1.1164 C.ar      1 <0>        -0.0669
      4 C4          0.0560   -2.0713   -1.2061 C.ar      1 <0>        -0.1001
      5 C5          0.6680   -2.6220   -0.0942 C.ar      1 <0>        -0.0739
      6 C6          0.6558   -1.9444    1.1089 C.ar      1 <0>        -0.1089
      7 C7          0.0336   -0.7060    1.2006 C.ar      1 <0>         0.1384
      8 N1          0.0246   -0.0143    2.4171 N.am      1 <0>        -0.6534
      9 C8         -0.0569   -0.6939    3.5782 C.2       1 <0>         0.5036
     10 O1         -0.0402   -1.9066    3.5734 O.2       1 <0>        -0.5320
     11 C9         -0.1688    0.0531    4.8822 C.3       1 <0>        -0.1672
     12 C10        -0.2455   -0.9468    6.0377 C.3       1 <0>         0.0443
     13 H1         -1.0730   -1.6375    5.8758 H         1 <0>         0.1495
     14 C11        -0.4427   -0.1946    7.3707 C.3       1 <0>        -0.1380
     15 C12         0.4335   -1.0046    8.3621 C.3       1 <0>        -0.1437
     16 C13         1.6250   -1.4167    7.4619 C.3       1 <0>        -0.0102
     17 N2          1.0207   -1.6956    6.1380 N.4       1 <0>        -0.5102
     18 I1          0.0758   -3.1035   -3.0291 I         1 <0>        -0.0249
     19 H2         -0.5503    1.9711   -0.0539 H         1 <0>         0.0796
     20 H3         -2.0940    1.2212   -0.5258 H         1 <0>         0.0806
     21 H4         -1.6440    1.3256    1.1932 H         1 <0>         0.0648
     22 H5         -1.0464   -0.4135   -1.9859 H         1 <0>         0.1389
     23 H6          1.1554   -3.5830   -0.1672 H         1 <0>         0.1361
     24 H7          1.1330   -2.3751    1.9767 H         1 <0>         0.1431
     25 H8          0.0770    0.9543    2.4247 H         1 <0>         0.4193
     26 H9          0.7053    0.6914    5.0115 H         1 <0>         0.1238
     27 H10        -1.0691    0.6674    4.8729 H         1 <0>         0.1466
     28 H11        -0.0852    0.8320    7.2904 H         1 <0>         0.1035
     29 H12        -1.4893   -0.2167    7.6745 H         1 <0>         0.1174
     30 H13         0.7675   -0.3786    9.1895 H         1 <0>         0.1198
     31 H14        -0.1004   -1.8814    8.7286 H         1 <0>         0.1011
     32 H15         2.3444   -0.6012    7.3879 H         1 <0>         0.1337
     33 H16         2.1051   -2.3130    7.8547 H         1 <0>         0.1381
     34 H17         0.8388   -2.6839    6.0468 H         1 <0>         0.4373
     35 H18         1.6497   -1.3984    5.4072 H         1 <0>         0.4254
@<TRIPOS>BOND
     1    1    2 1
     2    1   19 1
     3    1   20 1
     4    1   21 1
     5    2    7 ar
     6    2    3 ar
     7    3    4 ar
     8    3   22 1
     9    4    5 ar
    10    4   18 1
    11    5    6 ar
    12    5   23 1
    13    6    7 ar
    14    6   24 1
    15    7    8 1
    16    8    9 am
    17    8   25 1
    18    9   10 2
    19    9   11 1
    20   11   12 1
    21   11   26 1
    22   11   27 1
    23   12   13 1
    24   12   17 1
    25   12   14 1
    26   14   15 1
    27   14   28 1
    28   14   29 1
    29   15   16 1
    30   15   30 1
    31   15   31 1
    32   16   17 1
    33   16   32 1
    34   16   33 1
    35   17   34 1
    36   17   35 1
@<TRIPOS>MOLECULE
ZINC65298476
   60    63     0     0     0
SMALL
USER_CHARGES

@<TRIPOS>ATOM
      1 C1         -0.0184    1.5028    0.0103 C.3       1 <0>        -0.1228
      2 C2          0.0021   -0.0041    0.0020 C.ar      1 <0>        -0.0715
      3 C3          0.0057   -0.6887   -1.1989 C.ar      1 <0>        -0.1200
      4 C4          0.0245   -2.0709   -1.2065 C.ar      1 <0>        -0.1050
      5 C5          0.0400   -2.7685   -0.0132 C.ar      1 <0>        -0.1085
      6 C6          0.0373   -2.0839    1.1877 C.ar      1 <0>        -0.0886
      7 C7          0.0229   -0.7016    1.1953 C.ar      1 <0>        -0.1225
      8 C8          0.0595   -4.2753   -0.0215 C.3       1 <0>         0.1327
      9 H1          0.4098   -4.6332   -0.9896 H         1 <0>         0.0557
     10 C9         -1.3496   -4.8119    0.2490 C.3       1 <0>        -0.1250
     11 C10        -1.2752   -6.2820    0.5551 C.2       1 <0>         0.2712
     12 N1         -0.1841   -6.8794    0.8579 N.2       1 <0>        -0.5198
     13 C11         1.1159   -6.2222    0.9344 C.3       1 <0>         0.2649
     14 N2          0.9515   -4.7667    1.0425 N.3       1 <0>        -0.6858
     15 C12         1.9276   -6.5452   -0.3248 C.3       1 <0>        -0.1704
     16 C13         2.1754   -8.0537   -0.3904 C.3       1 <0>         0.0006
     17 N3          2.9246   -8.4825    0.7967 N.4       1 <0>        -0.3777
     18 C14         2.1275   -8.2380    2.0046 C.3       1 <0>        -0.0037
     19 C15         1.8778   -6.7365    2.1607 C.3       1 <0>        -0.1123
     20 C16         3.2255   -9.9165    0.6924 C.3       1 <0>         0.0248
     21 C17         4.0649  -10.1716   -0.5611 C.3       1 <0>        -0.1837
     22 C18         4.0065  -10.3651    1.9292 C.3       1 <0>        -0.1830
     23 C19        -2.5178   -7.0730    0.5047 C.ar      1 <0>        -0.1098
     24 C20        -3.7283   -6.4594    0.1731 C.ar      1 <0>        -0.0739
     25 C21        -4.8866   -7.2049    0.1273 C.ar      1 <0>        -0.1294
     26 C22        -4.8565   -8.5608    0.4091 C.ar      1 <0>        -0.0768
     27 C23        -3.6666   -9.1797    0.7384 C.ar      1 <0>        -0.1546
     28 C24        -2.4909   -8.4463    0.7836 C.ar      1 <0>         0.1539
     29 O1         -1.3201   -9.0544    1.1018 O.3       1 <0>        -0.4802
     30 H2          1.0042    1.8801    0.0026 H         1 <0>         0.0744
     31 H3         -0.5455    1.8639   -0.8728 H         1 <0>         0.0699
     32 H4         -0.5286    1.8543    0.9071 H         1 <0>         0.0701
     33 H5         -0.0064   -0.1436   -2.1312 H         1 <0>         0.1253
     34 H6          0.0266   -2.6057   -2.1448 H         1 <0>         0.1193
     35 H7          0.0491   -2.6289    2.1200 H         1 <0>         0.1289
     36 H8          0.0245   -0.1667    2.1335 H         1 <0>         0.1248
     37 H9         -1.7820   -4.2850    1.0996 H         1 <0>         0.1055
     38 H10        -1.9733   -4.6551   -0.6310 H         1 <0>         0.0971
     39 H11         1.8445   -4.2981    1.0108 H         1 <0>         0.3556
     40 H12         1.3718   -6.2288   -1.2074 H         1 <0>         0.1063
     41 H13         2.8823   -6.0207   -0.2872 H         1 <0>         0.0918
     42 H14         1.2200   -8.5772   -0.4252 H         1 <0>         0.1424
     43 H15         2.7500   -8.2884   -1.2865 H         1 <0>         0.1266
     44 H16         1.1731   -8.7578    1.9209 H         1 <0>         0.1418
     45 H17         2.6667   -8.6088    2.8764 H         1 <0>         0.1304
     46 H18         2.8317   -6.2153    2.2418 H         1 <0>         0.0898
     47 H19         1.2864   -6.5571    3.0585 H         1 <0>         0.1177
     48 H20         2.2943  -10.4793    0.6268 H         1 <0>         0.1378
     49 H21         4.9960   -9.6089   -0.4956 H         1 <0>         0.0794
     50 H22         4.2881  -11.2357   -0.6386 H         1 <0>         0.1051
     51 H23         3.5084   -9.8521   -1.4423 H         1 <0>         0.0804
     52 H24         3.4085  -10.1833    2.8222 H         1 <0>         0.0821
     53 H25         4.2298  -11.4292    1.8517 H         1 <0>         0.1048
     54 H26         4.9377   -9.8023    1.9947 H         1 <0>         0.0795
     55 H27        -3.7565   -5.4024   -0.0467 H         1 <0>         0.1337
     56 H28        -5.8220   -6.7298   -0.1292 H         1 <0>         0.1343
     57 H29        -5.7690   -9.1373    0.3716 H         1 <0>         0.1336
     58 H30        -3.6513  -10.2372    0.9572 H         1 <0>         0.1336
     59 H31        -1.1245   -9.0599    2.0488 H         1 <0>         0.3845
     60 H32         3.7879   -7.9632    0.8539 H         1 <0>         0.4144
@<TRIPOS>BOND
     1    1    2 1
     2    1   30 1
     3    1   31 1
     4    1   32 1
     5    2    7 ar
     6    2    3 ar
     7    3    4 ar
     8    3   33 1
     9    4    5 ar
    10    4   34 1
    11    5    6 ar
    12    5    8 1
    13    6    7 ar
    14    6   35 1
    15    7   36 1
    16    8    9 1
    17    8   14 1
    18    8   10 1
    19   10   11 1
    20   10   37 1
    21   10   38 1
    22   11   12 2
    23   11   23 1
    24   12   13 1
    25   13   19 1
    26   13   14 1
    27   13   15 1
    28   14   39 1
    29   15   16 1
    30   15   40 1
    31   15   41 1
    32   16   17 1
    33   16   42 1
    34   16   43 1
    35   17   18 1
    36   17   20 1
    37   17   60 1
    38   18   19 1
    39   18   44 1
    40   18   45 1
    41   19   46 1
    42   19   47 1
    43   20   21 1
    44   20   22 1
    45   20   48 1
    46   21   49 1
    47   21   50 1
    48   21   51 1
    49   22   52 1
    50   22   53 1
    51   22   54 1
    52   23   28 ar
    53   23   24 ar
    54   24   25 ar
    55   24   55 1
    56   25   26 ar
    57   25   56 1
    58   26   27 ar
    59   26   57 1
    60   27   28 ar
    61   27   58 1
    62   28   29 1
    63   29   59 1
@<TRIPOS>MOLECULE
ZINC21814451
   37    39     0     0     0
SMALL
USER_CHARGES
(3R)-3-[[(1R)-1-(3,4-dichlorophenyl)ethyl]amino]-2,3-dihydrobenzofuran-6-ol
@<TRIPOS>ATOM
      1 C1          3.9676    2.6689   -1.4421 C.3       1 <0>        -0.1849
      2 C2          3.6717    2.1848   -0.0212 C.3       1 <0>         0.0887
      3 H1          4.4863    1.5489    0.3558 H         1 <0>         0.1465
      4 C3          2.3777    1.4123   -0.0130 C.ar      1 <0>        -0.1282
      5 C4          1.1707    2.0865    0.0021 C.ar      1 <0>        -0.1061
      6 C5         -0.0167    1.3793    0.0096 C.ar      1 <0>        -0.0838
      7 C6          0.0021   -0.0041    0.0020 C.ar      1 <0>        -0.0137
      8 C7          1.2107   -0.6791   -0.0131 C.ar      1 <0>        -0.0265
      9 C8          2.3983    0.0305   -0.0206 C.ar      1 <0>        -0.0696
     10 Cl1         1.2360   -2.4149   -0.0221 Cl        1 <0>        -0.0173
     11 Cl2        -1.4891   -0.8929    0.0109 Cl        1 <0>        -0.0166
     12 N1          3.5568    3.3420    0.8764 N.4       1 <0>        -0.5474
     13 C9          4.8771    3.7640    1.3628 C.3       1 <0>         0.0635
     14 H2          5.4405    2.8206    1.4134 H         1 <0>         0.1526
     15 C10         5.4794    4.8574    0.4491 C.3       1 <0>         0.0374
     16 O1          5.0546    6.0743    1.0860 O.3       1 <0>        -0.2840
     17 C11         4.8912    5.8497    2.4188 C.ar      1 <0>         0.1719
     18 C12         4.7591    4.4926    2.6878 C.ar      1 <0>        -0.2870
     19 C13         4.5622    4.0431    3.9749 C.ar      1 <0>        -0.0002
     20 C14         4.4999    4.9449    5.0214 C.ar      1 <0>        -0.1833
     21 C15         4.6371    6.3023    4.7687 C.ar      1 <0>         0.2371
     22 C16         4.8318    6.7542    3.4745 C.ar      1 <0>        -0.2351
     23 O2          4.5798    7.1913    5.7950 O.3       1 <0>        -0.4918
     24 H3          4.9121    3.2327   -1.4481 H         1 <0>         0.0868
     25 H4          3.1499    3.3196   -1.7855 H         1 <0>         0.0887
     26 H5          4.0536    1.8024   -2.1142 H         1 <0>         0.1120
     27 H6          1.1557    3.1664    0.0077 H         1 <0>         0.1372
     28 H7         -0.9592    1.9065    0.0169 H         1 <0>         0.1558
     29 H8          3.3415   -0.4955   -0.0321 H         1 <0>         0.1533
     30 H9          3.0954    4.1813    0.3354 H         1 <0>         0.4440
     31 H10         6.5740    4.7516    0.4233 H         1 <0>         0.1255
     32 H11         5.0763    4.7479   -0.5685 H         1 <0>         0.1323
     33 H12         4.4555    2.9856    4.1667 H         1 <0>         0.1416
     34 H13         4.3448    4.5942    6.0311 H         1 <0>         0.1486
     35 H14         4.9382    7.8119    3.2839 H         1 <0>         0.1461
     36 H15         4.6883    8.2678    5.5968 H         1 <0>         0.4529
     37 H16         2.9313    3.0748    1.7409 H         1 <0>         0.4532
@<TRIPOS>BOND
     1    1    2 1
     2    1   24 1
     3    1   25 1
     4    1   26 1
     5    2    3 1
     6    2    4 1
     7    2   12 1
     8    4    9 ar
     9    4    5 ar
    10    5    6 ar
    11    5   27 1
    12    6    7 ar
    13    6   28 1
    14    7    8 ar
    15    7   11 1
    16    8    9 ar
    17    8   10 1
    18    9   29 1
    19   12   13 1
    20   12   30 1
    21   12   37 1
    22   13   14 1
    23   13   18 1
    24   13   15 1
    25   15   16 1
    26   15   31 1
    27   15   32 1
    28   16   17 1
    29   17   22 ar
    30   17   18 ar
    31   18   19 ar
    32   19   20 ar
    33   19   33 1
    34   20   21 ar
    35   20   34 1
    36   21   22 ar
    37   21   23 1
    38   22   35 1
    39   23   36 1
@<TRIPOS>MOLECULE
ZINC37122982
   45    46     0     0     0
SMALL
USER_CHARGES

@<TRIPOS>ATOM
      1 C1         -0.2265    1.4940   -0.6105 C.3       1 <0>        -0.0840
      2 C2         -0.1481    0.0119   -0.3491 C.2       1 <0>        -0.1106
      3 C3         -1.1536   -0.8916   -0.2493 C.2       1 <0>        -0.1977
      4 C4         -0.8429   -2.2158   -0.0029 C.2       1 <0>        -0.1792
      5 C5          0.4581   -2.5716    0.1318 C.2       1 <0>        -0.1100
      6 S1          1.2936   -1.0107   -0.0981 S.3       1 <0>         0.1114
      7 C6          1.0469   -3.9326    0.4002 C.3       1 <0>        -0.0872
      8 C7         -1.9342   -3.2483    0.1148 C.3       1 <0>         0.0961
      9 H1         -1.6927   -3.9420    0.9201 H         1 <0>         0.1445
     10 C8         -2.0530   -4.0173   -1.2025 C.3       1 <0>        -0.1752
     11 N1         -3.2096   -2.5813    0.4091 N.4       1 <0>        -0.5046
     12 C9         -4.2421   -3.5929    0.6711 C.3       1 <0>         0.0748
     13 H2         -4.2909   -4.2879   -0.1671 H         1 <0>         0.1474
     14 C10        -5.5980   -2.9051    0.8428 C.3       1 <0>        -0.1777
     15 C11        -3.8985   -4.3472    1.9297 C.ar      1 <0>        -0.1086
     16 C12        -3.3852   -3.6708    3.0208 C.ar      1 <0>        -0.1429
     17 C13        -3.0684   -4.3582    4.1776 C.ar      1 <0>        -0.0928
     18 C14        -3.2656   -5.7280    4.2455 C.ar      1 <0>         0.1054
     19 C15        -3.7827   -6.4087    3.1475 C.ar      1 <0>         0.1196
     20 C16        -4.1026   -5.7130    1.9927 C.ar      1 <0>        -0.1709
     21 O1         -3.9781   -7.7532    3.2094 O.3       1 <0>        -0.2972
     22 C17        -4.5121   -8.3854    2.0444 C.3       1 <0>         0.0202
     23 O2         -2.9541   -6.4058    5.3827 O.3       1 <0>        -0.4816
     24 H3          0.7795    1.9130   -0.6317 H         1 <0>         0.0818
     25 H4         -0.7130    1.6684   -1.5702 H         1 <0>         0.0894
     26 H5         -0.8028    1.9727    0.1813 H         1 <0>         0.0891
     27 H6         -2.1821   -0.5815   -0.3604 H         1 <0>         0.1247
     28 H7          1.2456   -4.4356   -0.5461 H         1 <0>         0.0917
     29 H8          1.9782   -3.8225    0.9558 H         1 <0>         0.0878
     30 H9          0.3426   -4.5242    0.9852 H         1 <0>         0.0832
     31 H10        -1.0805   -4.4299   -1.4712 H         1 <0>         0.1061
     32 H11        -2.7721   -4.8282   -1.0863 H         1 <0>         0.0821
     33 H12        -2.3908   -3.3419   -1.9884 H         1 <0>         0.0829
     34 H13        -3.1017   -1.9927    1.2215 H         1 <0>         0.4258
     35 H14        -5.5763   -2.2763    1.7329 H         1 <0>         0.0849
     36 H15        -5.8064   -2.2893   -0.0320 H         1 <0>         0.0858
     37 H16        -6.3772   -3.6597    0.9500 H         1 <0>         0.1088
     38 H17        -3.2310   -2.6031    2.9691 H         1 <0>         0.1249
     39 H18        -2.6669   -3.8276    5.0283 H         1 <0>         0.1491
     40 H19        -4.5076   -6.2383    1.1404 H         1 <0>         0.1433
     41 H20        -4.6179   -9.4547    2.2275 H         1 <0>         0.1117
     42 H21        -5.4880   -7.9579    1.8140 H         1 <0>         0.0603
     43 H22        -3.8378   -8.2258    1.2030 H         1 <0>         0.0595
     44 H23        -3.6829   -6.4689    6.0151 H         1 <0>         0.4006
     45 H24        -3.4843   -2.0172   -0.3810 H         1 <0>         0.4273
@<TRIPOS>BOND
     1    1    2 1
     2    1   24 1
     3    1   25 1
     4    1   26 1
     5    2    6 1
     6    2    3 2
     7    3    4 1
     8    3   27 1
     9    4    5 2
    10    4    8 1
    11    5    6 1
    12    5    7 1
    13    7   28 1
    14    7   29 1
    15    7   30 1
    16    8    9 1
    17    8   10 1
    18    8   11 1
    19   10   31 1
    20   10   32 1
    21   10   33 1
    22   11   12 1
    23   11   34 1
    24   11   45 1
    25   12   13 1
    26   12   14 1
    27   12   15 1
    28   14   35 1
    29   14   36 1
    30   14   37 1
    31   15   20 ar
    32   15   16 ar
    33   16   17 ar
    34   16   38 1
    35   17   18 ar
    36   17   39 1
    37   18   19 ar
    38   18   23 1
    39   19   20 ar
    40   19   21 1
    41   20   40 1
    42   21   22 1
    43   22   41 1
    44   22   42 1
    45   22   43 1
    46   23   44 1
@<TRIPOS>MOLECULE
ZINC42963841
   42    43     0     0     0
SMALL
USER_CHARGES

@<TRIPOS>ATOM
      1 C1         -0.6855    1.4832    0.0904 C.3       1 <0>        -0.1235
      2 C2         -0.5249   -0.0149    0.0598 C.ar      1 <0>        -0.0361
      3 C3         -0.5935   -0.6923   -1.1438 C.ar      1 <0>        -0.1323
      4 C4         -0.4470   -2.0666   -1.1756 C.ar      1 <0>        -0.0618
      5 C5         -0.2311   -2.7671   -0.0034 C.ar      1 <0>        -0.0670
      6 C6         -0.1614   -2.0888    1.2058 C.ar      1 <0>         0.1233
      7 C7         -0.3036   -0.7093    1.2334 C.ar      1 <0>        -0.2065
      8 O1          0.0509   -2.7747    2.3599 O.3       1 <0>        -0.2709
      9 C8          0.1576   -2.0070    3.5605 C.3       1 <0>         0.1215
     10 H1         -0.3812   -1.0672    3.4399 H         1 <0>         0.1068
     11 C9         -0.4366   -2.7832    4.7075 C.ar      1 <0>        -0.1909
     12 C10        -0.2173   -4.1447    4.8066 C.ar      1 <0>        -0.0371
     13 C11        -0.7613   -4.8585    5.8568 C.ar      1 <0>        -0.1475
     14 C12        -1.5278   -4.2080    6.8128 C.ar      1 <0>         0.1602
     15 C13        -1.7461   -2.8417    6.7113 C.ar      1 <0>        -0.2059
     16 C14        -1.1956   -2.1315    5.6620 C.ar      1 <0>        -0.0768
     17 O2         -2.0644   -4.9081    7.8466 O.3       1 <0>        -0.3076
     18 C15        -2.8425   -4.1730    8.7933 C.3       1 <0>         0.0217
     19 C16         1.6314   -1.7163    3.8507 C.3       1 <0>         0.0062
     20 H2          2.1702   -2.6561    3.9713 H         1 <0>         0.1552
     21 C17         2.2347   -0.9283    2.6862 C.3       1 <0>        -0.1916
     22 N1          1.7411   -0.9272    5.0849 N.4       1 <0>        -0.6297
     23 Cl1        -0.0478   -4.4929   -0.0434 Cl        1 <0>        -0.0441
     24 H3          0.2897    1.9556   -0.0275 H         1 <0>         0.0798
     25 H4         -1.3410    1.7950   -0.7227 H         1 <0>         0.0787
     26 H5         -1.1213    1.7824    1.0436 H         1 <0>         0.0689
     27 H6         -0.7621   -0.1468   -2.0605 H         1 <0>         0.1407
     28 H7         -0.5018   -2.5935   -2.1168 H         1 <0>         0.1475
     29 H8         -0.2457   -0.1788    2.1724 H         1 <0>         0.1327
     30 H9          0.3795   -4.6506    4.0621 H         1 <0>         0.1417
     31 H10        -0.5902   -5.9221    5.9333 H         1 <0>         0.1432
     32 H11        -2.3425   -2.3331    7.4543 H         1 <0>         0.1405
     33 H12        -1.3615   -1.0671    5.5850 H         1 <0>         0.1294
     34 H13        -3.2106   -4.8496    9.5646 H         1 <0>         0.1107
     35 H14        -2.2234   -3.4019    9.2518 H         1 <0>         0.0605
     36 H15        -3.6869   -3.7068    8.2857 H         1 <0>         0.0621
     37 H16         2.1533   -1.5138    1.7704 H         1 <0>         0.1108
     38 H17         1.6959    0.0115    2.5656 H         1 <0>         0.0859
     39 H18         3.2847   -0.7212    2.8929 H         1 <0>         0.0917
     40 H19         1.3432   -1.4468    5.8528 H         1 <0>         0.4367
     41 H20         2.7130   -0.7355    5.2762 H         1 <0>         0.4418
     42 H21         1.2423   -0.0572    4.9733 H         1 <0>         0.4313
@<TRIPOS>BOND
     1    1    2 1
     2    1   24 1
     3    1   25 1
     4    1   26 1
     5    2    7 ar
     6    2    3 ar
     7    3    4 ar
     8    3   27 1
     9    4    5 ar
    10    4   28 1
    11    5    6 ar
    12    5   23 1
    13    6    7 ar
    14    6    8 1
    15    7   29 1
    16    8    9 1
    17    9   10 1
    18    9   11 1
    19    9   19 1
    20   11   16 ar
    21   11   12 ar
    22   12   13 ar
    23   12   30 1
    24   13   14 ar
    25   13   31 1
    26   14   15 ar
    27   14   17 1
    28   15   16 ar
    29   15   32 1
    30   16   33 1
    31   17   18 1
    32   18   34 1
    33   18   35 1
    34   18   36 1
    35   19   20 1
    36   19   21 1
    37   19   22 1
    38   21   37 1
    39   21   38 1
    40   21   39 1
    41   22   40 1
    42   22   41 1
    43   22   42 1
@<TRIPOS>MOLECULE
ZINC53756791
   43    44     0     0     0
SMALL
USER_CHARGES

@<TRIPOS>ATOM
      1 C1         -0.0184    1.5028    0.0103 C.3       1 <0>        -0.1182
      2 C2          0.0021   -0.0041    0.0020 C.ar      1 <0>        -0.1321
      3 C3          0.0060   -0.6969   -1.1913 C.ar      1 <0>         0.1230
      4 N1          0.0243   -2.0162   -1.2071 N.ar      1 <0>        -0.4607
      5 C4          0.0395   -2.7261   -0.0946 C.ar      1 <0>         0.0969
      6 C5          0.0369   -2.1077    1.1386 C.ar      1 <0>        -0.1780
      7 C6          0.0231   -0.7162    1.1984 C.ar      1 <0>         0.1512
      8 O1          0.0252   -0.0709    2.3926 O.3       1 <0>        -0.3291
      9 C7         -1.2469    0.2198    2.9751 C.3       1 <0>         0.0320
     10 C8          0.0543   -2.9265    2.4036 C.3       1 <0>        -0.1307
     11 C9          0.0596   -4.2309   -0.1724 C.3       1 <0>        -0.0871
     12 C10         1.5088   -4.7206   -0.2059 C.3       1 <0>         0.1240
     13 C11         2.2160   -4.1371   -1.4308 C.3       1 <0>        -0.1680
     14 C12         1.5289   -6.2254   -0.2837 C.ar      1 <0>        -0.1184
     15 C13         0.5007   -6.8984   -0.9170 C.ar      1 <0>        -0.0824
     16 C14         0.5189   -8.2786   -0.9890 C.ar      1 <0>        -0.0746
     17 C15         1.5662   -8.9864   -0.4272 C.ar      1 <0>        -0.0723
     18 C16         2.5947   -8.3127    0.2064 C.ar      1 <0>        -0.0739
     19 C17         2.5783   -6.9322    0.2733 C.ar      1 <0>        -0.1202
     20 Br1         1.5914  -10.8748   -0.5249 Br        1 <0>        -0.0161
     21 N2          2.2015   -4.2840    1.0137 N.4       1 <0>        -0.6404
     22 H1          1.0042    1.8801    0.0026 H         1 <0>         0.0859
     23 H2         -0.5455    1.8639   -0.8728 H         1 <0>         0.0804
     24 H3         -0.5286    1.8543    0.9071 H         1 <0>         0.0754
     25 H4         -0.0064   -0.1526   -2.1241 H         1 <0>         0.1724
     26 H5         -1.8191    0.8557    2.2995 H         1 <0>         0.0565
     27 H6         -1.7894   -0.7101    3.1457 H         1 <0>         0.0529
     28 H7         -1.1025    0.7356    3.9244 H         1 <0>         0.1086
     29 H8          1.0861   -3.1096    2.7037 H         1 <0>         0.0615
     30 H9         -0.4633   -2.3840    3.1947 H         1 <0>         0.0940
     31 H10        -0.4472   -3.8781    2.2275 H         1 <0>         0.0834
     32 H11        -0.4442   -4.6466    0.7002 H         1 <0>         0.1124
     33 H12        -0.4544   -4.5549   -1.0773 H         1 <0>         0.1354
     34 H13         2.2015   -3.0486   -1.3745 H         1 <0>         0.0873
     35 H14         3.2484   -4.4859   -1.4547 H         1 <0>         0.0835
     36 H15         1.7020   -4.4610   -2.3357 H         1 <0>         0.1136
     37 H16        -0.3171   -6.3456   -1.3553 H         1 <0>         0.1467
     38 H17        -0.2845   -8.8042   -1.4835 H         1 <0>         0.1488
     39 H18         3.4126   -8.8649    0.6451 H         1 <0>         0.1470
     40 H19         3.3834   -6.4058    0.7644 H         1 <0>         0.1275
     41 H20         1.7351   -4.6688    1.8214 H         1 <0>         0.4341
     42 H21         3.1572   -4.6069    0.9916 H         1 <0>         0.4328
     43 H22         2.1881   -3.2764    1.0658 H         1 <0>         0.4347
@<TRIPOS>BOND
     1    1    2 1
     2    1   22 1
     3    1   23 1
     4    1   24 1
     5    2    7 ar
     6    2    3 ar
     7    3    4 ar
     8    3   25 1
     9    4    5 ar
    10    5    6 ar
    11    5   11 1
    12    6    7 ar
    13    6   10 1
    14    7    8 1
    15    8    9 1
    16    9   26 1
    17    9   27 1
    18    9   28 1
    19   10   29 1
    20   10   30 1
    21   10   31 1
    22   11   12 1
    23   11   32 1
    24   11   33 1
    25   12   13 1
    26   12   14 1
    27   12   21 1
    28   13   34 1
    29   13   35 1
    30   13   36 1
    31   14   19 ar
    32   14   15 ar
    33   15   16 ar
    34   15   37 1
    35   16   17 ar
    36   16   38 1
    37   17   18 ar
    38   17   20 1
    39   18   19 ar
    40   18   39 1
    41   19   40 1
    42   21   41 1
    43   21   42 1
    44   21   43 1
@<TRIPOS>MOLECULE
ZINC62776406
   25    26     0     0     0
SMALL
USER_CHARGES

@<TRIPOS>ATOM
      1 C1         -0.0178    1.4648    0.0101 C.3       1 <0>        -0.0552
      2 N1          0.0021   -0.0041    0.0020 N.4       1 <0>        -0.5044
      3 C2          0.7126   -0.4907    1.1921 C.3       1 <0>         0.1928
      4 H1          1.7055   -0.0428    1.2310 H         1 <0>         0.1658
      5 C3          0.8405   -1.9906    1.1225 C.2       1 <0>         0.0230
      6 C4          1.8201   -2.7606    1.7581 C.2       1 <0>        -0.2443
      7 C5          1.5936   -4.0588    1.4507 C.2       1 <0>         0.0890
      8 N2          0.5092   -4.1086    0.6491 N.pl3     1 <0>        -0.4433
      9 N3          0.0510   -2.7981    0.4617 N.2       1 <0>        -0.2897
     10 H2          0.1145   -4.9105    0.2722 H         1 <0>         0.4534
     11 C6         -0.0593   -0.1092    2.4290 C.2       1 <0>        -0.1331
     12 C7         -1.4240    0.1058    2.3663 C.2       1 <0>        -0.1407
     13 C8         -2.0879    0.4478    3.4981 C.2       1 <0>        -0.1517
     14 S1         -0.7724    0.4746    4.7047 S.3       1 <0>         0.2547
     15 C9          0.5727    0.0229    3.6214 C.2       1 <0>        -0.1448
     16 Br1         2.4044   -0.2089    4.0302 Br        1 <0>         0.0836
     17 Br2        -3.9296    0.8046    3.7365 Br        1 <0>         0.0816
     18 H3          1.0047    1.8421    0.0024 H         1 <0>         0.1310
     19 H4         -0.5450    1.8259   -0.8730 H         1 <0>         0.1358
     20 H5         -0.5280    1.8163    0.9069 H         1 <0>         0.1256
     21 H6         -0.9445   -0.3533    0.0092 H         1 <0>         0.4318
     22 H7          2.6168   -2.3852    2.3832 H         1 <0>         0.1606
     23 H8          2.1765   -4.9037    1.7865 H         1 <0>         0.1947
     24 H9         -1.9528    0.0033    1.4303 H         1 <0>         0.1448
     25 H10         0.4744   -0.3295   -0.8281 H         1 <0>         0.4390
@<TRIPOS>BOND
     1    1    2 1
     2    1   18 1
     3    1   19 1
     4    1   20 1
     5    2    3 1
     6    2   21 1
     7    2   25 1
     8    3    4 1
     9    3   11 1
    10    3    5 1
    11    5    9 2
    12    5    6 1
    13    6   22 1
    14    6    7 2
    15    7   23 1
    16    7    8 1
    17    8    9 1
    18    8   10 1
    19   11   15 2
    20   11   12 1
    21   12   13 2
    22   12   24 1
    23   13   14 1
    24   13   17 1
    25   14   15 1
    26   15   16 1
@<TRIPOS>MOLECULE
ZINC06482759
   33    34     0     0     0
SMALL
USER_CHARGES
(1S,4aS,6R,8aS)-8a-methyldecalin-1,6-diol
@<TRIPOS>ATOM
      1 C1          0.3677    3.5330   -1.2318 C.3       1 <0>        -0.1455
      2 C2          1.1449    3.0852    0.0077 C.3       1 <0>        -0.0419
      3 C3          0.3915    3.5195    1.2665 C.3       1 <0>        -0.1003
      4 C4          0.2500    5.0430    1.2761 C.3       1 <0>        -0.1554
      5 C5          1.6391    5.6842    1.2662 C.3       1 <0>         0.1041
      6 H1          1.5384    6.7695    1.2730 H         1 <0>         0.0529
      7 C6          2.3925    5.2499    0.0074 C.3       1 <0>        -0.1082
      8 C7          2.5340    3.7264   -0.0021 C.3       1 <0>        -0.0706
      9 H2          3.0877    3.4074    0.8809 H         1 <0>         0.0794
     10 C8          3.2873    3.2921   -1.2610 C.3       1 <0>        -0.1213
     11 C9          3.4288    1.7687   -1.2705 C.3       1 <0>        -0.1170
     12 C10         2.0397    1.1274   -1.2607 C.3       1 <0>        -0.1544
     13 C11         1.2864    1.5618   -0.0018 C.3       1 <0>         0.1152
     14 H3          1.8401    1.2428    0.8812 H         1 <0>         0.0524
     15 O1         -0.0110    0.9628    0.0073 O.3       1 <0>        -0.5641
     16 O2          2.3650    5.2660    2.4239 O.3       1 <0>        -0.5638
     17 H4         -0.6219    3.0761   -1.2248 H         1 <0>         0.0611
     18 H5          0.2669    4.6183   -1.2250 H         1 <0>         0.0563
     19 H6          0.9044    3.2235   -2.1286 H         1 <0>         0.0576
     20 H7         -0.5981    3.0627    1.2735 H         1 <0>         0.0688
     21 H8          0.9452    3.2005    2.1496 H         1 <0>         0.0642
     22 H9         -0.3037    5.3620    0.3930 H         1 <0>         0.0741
     23 H10        -0.2867    5.3524    2.1729 H         1 <0>         0.0632
     24 H11         3.3821    5.7067    0.0004 H         1 <0>         0.0696
     25 H12         1.8388    5.5689   -0.8756 H         1 <0>         0.0782
     26 H13         4.2769    3.7489   -1.2680 H         1 <0>         0.0641
     27 H14         2.7336    3.6111   -2.1440 H         1 <0>         0.0663
     28 H15         3.9825    1.4497   -0.3875 H         1 <0>         0.0625
     29 H16         3.9655    1.4592   -2.1673 H         1 <0>         0.0648
     30 H17         2.1405    0.0421   -1.2675 H         1 <0>         0.0623
     31 H18         1.4860    1.4464   -2.1437 H         1 <0>         0.0738
     32 H19         0.0021   -0.0041    0.0020 H         1 <0>         0.3756
     33 H20         1.9448    5.5083    3.2604 H         1 <0>         0.3756
@<TRIPOS>BOND
     1    1    2 1
     2    1   17 1
     3    1   18 1
     4    1   19 1
     5    2    8 1
     6    2   13 1
     7    2    3 1
     8    3    4 1
     9    3   20 1
    10    3   21 1
    11    4    5 1
    12    4   22 1
    13    4   23 1
    14    5    6 1
    15    5    7 1
    16    5   16 1
    17    7    8 1
    18    7   24 1
    19    7   25 1
    20    8    9 1
    21    8   10 1
    22   10   11 1
    23   10   26 1
    24   10   27 1
    25   11   12 1
    26   11   28 1
    27   11   29 1
    28   12   13 1
    29   12   30 1
    30   12   31 1
    31   13   14 1
    32   13   15 1
    33   15   32 1
    34   16   33 1
@<TRIPOS>MOLECULE
ZINC34940027
   26    28     0     0     0
SMALL
USER_CHARGES

@<TRIPOS>ATOM
      1 C1         -0.0187    1.5258    0.0104 C.3       1 <0>        -0.1264
      2 C2          0.0021   -0.0041    0.0020 C.3       1 <0>        -0.1257
      3 H1         -0.8825   -0.4839   -0.4168 H         1 <0>         0.1116
      4 C3          1.3509   -0.6911   -0.2209 C.3       1 <0>        -0.1396
      5 C4          0.7031   -0.7075    1.1659 C.3       1 <0>        -0.0858
      6 H2          1.1496   -0.0804    1.9376 H         1 <0>         0.1353
      7 C5          0.1182   -2.0110    1.6452 C.2       1 <0>         0.2622
      8 N1         -0.0152   -3.0772    0.9159 N.2       1 <0>        -0.4666
      9 C6         -0.5778   -4.0592    1.6728 C.ar      1 <0>        -0.0331
     10 C7         -0.9440   -5.3824    1.4197 C.ar      1 <0>        -0.0111
     11 C8         -1.5026   -6.1369    2.4119 C.ar      1 <0>        -0.1840
     12 C9         -1.7115   -5.5960    3.6789 C.ar      1 <0>         0.2457
     13 C10        -1.3538   -4.2844    3.9469 C.ar      1 <0>        -0.1905
     14 C11        -0.7858   -3.5100    2.9474 C.ar      1 <0>         0.0615
     15 O1         -0.3345   -2.2379    2.8891 O.3       1 <0>        -0.2140
     16 N2         -2.2850   -6.3799    4.6840 N.pl3     1 <0>        -0.8676
     17 H3          1.0039    1.9031    0.0027 H         1 <0>         0.0619
     18 H4         -0.5459    1.8868   -0.8726 H         1 <0>         0.0677
     19 H5         -0.5289    1.8773    0.9072 H         1 <0>         0.0639
     20 H6          1.3536   -1.6231   -0.7861 H         1 <0>         0.1120
     21 H7          2.2234   -0.0532   -0.3616 H         1 <0>         0.1096
     22 H8         -0.7860   -5.8090    0.4402 H         1 <0>         0.1374
     23 H9         -1.7847   -7.1602    2.2128 H         1 <0>         0.1366
     24 H10        -1.5172   -3.8674    4.9297 H         1 <0>         0.1327
     25 H11        -2.5365   -7.2983    4.4987 H         1 <0>         0.4043
     26 H12        -2.4315   -6.0056    5.5668 H         1 <0>         0.4022
@<TRIPOS>BOND
     1    1    2 1
     2    1   17 1
     3    1   18 1
     4    1   19 1
     5    2    3 1
     6    2    5 1
     7    2    4 1
     8    4    5 1
     9    4   20 1
    10    4   21 1
    11    5    6 1
    12    5    7 1
    13    7   15 1
    14    7    8 2
    15    8    9 1
    16    9   14 ar
    17    9   10 ar
    18   10   11 ar
    19   10   22 1
    20   11   12 ar
    21   11   23 1
    22   12   13 ar
    23   12   16 1
    24   13   14 ar
    25   13   24 1
    26   14   15 1
    27   16   25 1
    28   16   26 1
@<TRIPOS>MOLECULE
ZINC39104560
   32    32     0     0     0
SMALL
USER_CHARGES

@<TRIPOS>ATOM
      1 C1         -1.3698    1.6251    0.7268 C.3       1 <0>        -0.1494
      2 C2         -1.0285    0.1495    0.5102 C.3       1 <0>        -0.0862
      3 H1         -0.5673    0.0232   -0.4693 H         1 <0>         0.0774
      4 C3         -2.3082   -0.6860    0.5830 C.3       1 <0>        -0.1183
      5 C4         -1.9668   -2.1617    0.3665 C.3       1 <0>        -0.1156
      6 C5         -0.9932   -2.6245    1.4521 C.3       1 <0>        -0.0526
      7 H2         -1.4544   -2.4982    2.4316 H         1 <0>         0.0828
      8 C6          0.2865   -1.7890    1.3794 C.3       1 <0>         0.3051
      9 C7         -0.0548   -0.3134    1.5959 C.3       1 <0>        -0.1673
     10 O1          1.1959   -2.2214    2.3934 O.3       1 <0>        -0.5616
     11 O2          0.8911   -1.9546    0.0952 O.3       1 <0>        -0.5644
     12 C8         -0.6518   -4.1002    1.2356 C.3       1 <0>        -0.0856
     13 C9          0.1936   -4.6052    2.4065 C.3       1 <0>        -0.1459
     14 C10        -1.9438   -4.9153    1.1505 C.3       1 <0>        -0.1526
     15 H3         -0.4582    2.2203    0.6750 H         1 <0>         0.0536
     16 H4         -2.0635    1.9548   -0.0467 H         1 <0>         0.0573
     17 H5         -1.8310    1.7514    1.7063 H         1 <0>         0.0543
     18 H6         -2.7694   -0.5597    1.5625 H         1 <0>         0.0616
     19 H7         -3.0018   -0.3563   -0.1905 H         1 <0>         0.0660
     20 H8         -2.8785   -2.7569    0.4183 H         1 <0>         0.0725
     21 H9         -1.5056   -2.2880   -0.6131 H         1 <0>         0.0734
     22 H10         0.8568    0.2818    1.5441 H         1 <0>         0.0659
     23 H11        -0.5160   -0.1871    2.5754 H         1 <0>         0.0786
     24 H12         2.0311   -1.7342    2.4063 H         1 <0>         0.3705
     25 H13         1.7091   -1.4524   -0.0221 H         1 <0>         0.3742
     26 H14        -0.0905   -4.2109    0.3078 H         1 <0>         0.0758
     27 H15         0.2820   -5.6901    2.3495 H         1 <0>         0.0424
     28 H16         1.1860   -4.1568    2.3581 H         1 <0>         0.0788
     29 H17        -0.2847   -4.3284    3.3460 H         1 <0>         0.0466
     30 H18        -2.5461   -4.5555    0.3163 H         1 <0>         0.0567
     31 H19        -1.7006   -5.9666    0.9962 H         1 <0>         0.0538
     32 H20        -2.5051   -4.8046    2.0783 H         1 <0>         0.0522
@<TRIPOS>BOND
     1    1    2 1
     2    1   15 1
     3    1   16 1
     4    1   17 1
     5    2    3 1
     6    2    9 1
     7    2    4 1
     8    4    5 1
     9    4   18 1
    10    4   19 1
    11    5    6 1
    12    5   20 1
    13    5   21 1
    14    6    7 1
    15    6    8 1
    16    6   12 1
    17    8    9 1
    18    8   10 1
    19    8   11 1
    20    9   22 1
    21    9   23 1
    22   10   24 1
    23   11   25 1
    24   12   13 1
    25   12   14 1
    26   12   26 1
    27   13   27 1
    28   13   28 1
    29   13   29 1
    30   14   30 1
    31   14   31 1
    32   14   32 1
@<TRIPOS>MOLECULE
ZINC44261792
   23    23     0     0     0
SMALL
USER_CHARGES

@<TRIPOS>ATOM
      1 C1         -1.3496    0.6570    0.9791 C.3       1 <0>        -0.0935
      2 C2         -1.1827   -0.7933    0.6052 C.2       1 <0>        -0.1572
      3 C3         -0.7096   -1.1421   -0.6366 C.2       1 <0>        -0.1076
      4 C4         -0.5950   -2.5070   -0.8756 C.2       1 <0>        -0.1973
      5 S1         -1.1623   -3.1973    0.6670 S.3       1 <0>         0.2640
      6 C5         -1.4922   -1.7717    1.4922 C.2       1 <0>        -0.2265
      7 C6         -2.0153   -1.6155    2.8968 C.3       1 <0>        -0.0687
      8 C7         -0.1457   -3.1746   -2.0406 C.2       1 <0>         0.0445
      9 C8          0.7234   -4.2109   -1.9360 C.2       1 <0>        -0.2347
     10 C9          1.3476   -4.4882   -0.6971 C.2       1 <0>         0.5375
     11 O1          1.1899   -3.7345    0.2465 O.2       1 <0>        -0.5309
     12 N1          2.1168   -5.5865   -0.5610 N.am      1 <0>        -0.8545
     13 H1         -0.4263    1.0255    1.4263 H         1 <0>         0.0625
     14 H2         -1.5780    1.2385    0.0859 H         1 <0>         0.0610
     15 H3         -2.1651    0.7560    1.6955 H         1 <0>         0.0619
     16 H4         -0.4443   -0.4040   -1.3791 H         1 <0>         0.1348
     17 H5         -3.1050   -1.5964    2.8787 H         1 <0>         0.0751
     18 H6         -1.6767   -2.4536    3.5059 H         1 <0>         0.0706
     19 H7         -1.6427   -0.6835    3.3218 H         1 <0>         0.0770
     20 H8         -0.4949   -2.8587   -3.0126 H         1 <0>         0.1448
     21 H9          0.9387   -4.8242   -2.7984 H         1 <0>         0.1359
     22 H10         2.2425   -6.1868   -1.3125 H         1 <0>         0.3998
     23 H11         2.5449   -5.7766    0.2884 H         1 <0>         0.4015
@<TRIPOS>BOND
     1    1    2 1
     2    1   13 1
     3    1   14 1
     4    1   15 1
     5    2    6 2
     6    2    3 1
     7    3    4 2
     8    3   16 1
     9    4    5 1
    10    4    8 1
    11    5    6 1
    12    6    7 1
    13    7   17 1
    14    7   18 1
    15    7   19 1
    16    8    9 2
    17    8   20 1
    18    9   10 1
    19    9   21 1
    20   10   11 2
    21   10   12 am
    22   12   22 1
    23   12   23 1
@<TRIPOS>MOLECULE
ZINC67172219
   30    31     0     0     0
SMALL
USER_CHARGES

@<TRIPOS>ATOM
      1 C1         -0.2552    1.5163   -0.1174 C.3       1 <0>        -0.1889
      2 C2         -0.1734   -0.0113   -0.0926 C.3       1 <0>         0.1004
      3 C3         -1.5866   -0.6014    0.0179 C.3       1 <0>        -0.1313
      4 C4         -1.4560   -2.0897    0.3872 C.3       1 <0>        -0.1065
      5 H1         -2.2992   -2.7055    0.0742 H         1 <0>         0.0780
      6 C5         -0.0615   -2.6295    0.0072 C.3       1 <0>        -0.1576
      7 C6          0.4185   -1.9741    1.3189 C.3       1 <0>        -0.0982
      8 H2          1.2266   -2.4929    1.8346 H         1 <0>         0.0836
      9 C7          0.6435   -0.4639    1.1262 C.3       1 <0>         0.1339
     10 H3          1.7018   -0.2686    0.9531 H         1 <0>         0.0650
     11 O1          0.2058    0.2414    2.2894 O.3       1 <0>        -0.5384
     12 C8         -1.0165   -2.2630    1.8534 C.3       1 <0>        -0.0742
     13 C9         -1.1995   -3.6842    2.3897 C.3       1 <0>        -0.1296
     14 C10        -1.5682   -1.1907    2.7950 C.3       1 <0>        -0.1353
     15 O2          0.4526   -0.4776   -1.2896 O.3       1 <0>        -0.5445
     16 H4          0.7500    1.9330   -0.1803 H         1 <0>         0.0661
     17 H5         -0.8355    1.8351   -0.9834 H         1 <0>         0.0656
     18 H6         -0.7385    1.8691    0.7936 H         1 <0>         0.0718
     19 H7         -2.1447   -0.0772    0.7937 H         1 <0>         0.0869
     20 H8         -2.1022   -0.5031   -0.9374 H         1 <0>         0.0668
     21 H9          0.0052   -3.7174    0.0078 H         1 <0>         0.0773
     22 H10         0.3570   -2.1757   -0.8912 H         1 <0>         0.1171
     23 H11         0.3005    1.2017    2.2260 H         1 <0>         0.3667
     24 H12        -0.9119   -4.4022    1.6216 H         1 <0>         0.0561
     25 H13        -0.5728   -3.8238    3.2705 H         1 <0>         0.0571
     26 H14        -2.2443   -3.8392    2.6589 H         1 <0>         0.0568
     27 H15        -2.5902   -1.4451    3.0762 H         1 <0>         0.0346
     28 H16        -0.9476   -1.1384    3.6895 H         1 <0>         0.0560
     29 H17        -1.5600   -0.2247    2.2901 H         1 <0>         0.0881
     30 H18        -0.0148   -0.2313   -2.0995 H         1 <0>         0.3763
@<TRIPOS>BOND
     1    1    2 1
     2    1   16 1
     3    1   17 1
     4    1   18 1
     5    2    9 1
     6    2    3 1
     7    2   15 1
     8    3    4 1
     9    3   19 1
    10    3   20 1
    11    4    5 1
    12    4   12 1
    13    4    6 1
    14    6    7 1
    15    6   21 1
    16    6   22 1
    17    7    8 1
    18    7    9 1
    19    7   12 1
    20    9   10 1
    21    9   11 1
    22   11   23 1
    23   12   13 1
    24   12   14 1
    25   13   24 1
    26   13   25 1
    27   13   26 1
    28   14   27 1
    29   14   28 1
    30   14   29 1
    31   15   30 1
@<TRIPOS>MOLECULE
ZINC32014063
   40    40     0     0     0
SMALL
USER_CHARGES
(2R)-2-(3,4-dimethylphenyl)-3-methyl-1-(methylamino)butan-2-ol
@<TRIPOS>ATOM
      1 C1          3.6272   -0.9907    0.6287 C.3       1 <0>        -0.1261
      2 C2          2.3466   -0.2086    0.4891 C.ar      1 <0>        -0.0665
      3 C3          1.3554   -0.6523   -0.3667 C.ar      1 <0>        -0.1128
      4 C4          0.1812    0.0652   -0.4950 C.ar      1 <0>        -0.1168
      5 C5         -0.0027    1.2261    0.2329 C.ar      1 <0>        -0.0997
      6 C6          0.9877    1.6691    1.0891 C.ar      1 <0>        -0.0794
      7 C7          2.1631    0.9524    1.2162 C.ar      1 <0>        -0.0821
      8 C8          3.2435    1.4360    2.1489 C.3       1 <0>        -0.1227
      9 C9         -1.2806    2.0118    0.0882 C.3       1 <0>         0.1855
     10 C10        -1.5401    2.2952   -1.3927 C.3       1 <0>        -0.0317
     11 N1         -2.7241    3.1544   -1.5267 N.4       1 <0>        -0.5682
     12 C11        -3.0043    3.4481   -2.9385 C.3       1 <0>        -0.0494
     13 C12        -2.4446    1.2030    0.6644 C.3       1 <0>        -0.1336
     14 C13        -2.1231    0.8022    2.1055 C.3       1 <0>        -0.1480
     15 C14        -3.7163    2.0534    0.6431 C.3       1 <0>        -0.1646
     16 O1         -1.1627    3.2475    0.7962 O.3       1 <0>        -0.5563
     17 H1          3.5889   -1.8762   -0.0228 H         1 <0>         0.0696
     18 H2          3.7498   -1.3098    1.6742 H         1 <0>         0.0768
     19 H3          4.4775   -0.3570    0.3366 H         1 <0>         0.0764
     20 H4          1.4990   -1.5593   -0.9351 H         1 <0>         0.1294
     21 H5         -0.5929   -0.2812   -1.1638 H         1 <0>         0.1189
     22 H6          0.8440    2.5760    1.6578 H         1 <0>         0.1344
     23 H7          2.9181    2.3675    2.6352 H         1 <0>         0.0681
     24 H8          4.1646    1.6231    1.5774 H         1 <0>         0.0751
     25 H9          3.4364    0.6704    2.9148 H         1 <0>         0.0756
     26 H10        -0.6669    2.8038   -1.8272 H         1 <0>         0.1344
     27 H11        -1.7133    1.3470   -1.9226 H         1 <0>         0.1346
     28 H12        -3.5973    2.6458   -1.0922 H         1 <0>         0.4351
     29 H13        -3.8936    4.0915   -3.0096 H         1 <0>         0.1240
     30 H14        -3.1878    2.5079   -3.4792 H         1 <0>         0.1171
     31 H15        -2.1413    3.9648   -3.3838 H         1 <0>         0.1156
     32 H16        -2.5983    0.2983    0.0579 H         1 <0>         0.0964
     33 H17        -2.9599    0.2207    2.5197 H         1 <0>         0.0660
     34 H18        -1.9695    1.7069    2.7121 H         1 <0>         0.0693
     35 H19        -1.2088    0.1908    2.1207 H         1 <0>         0.0707
     36 H20        -4.5532    1.4720    1.0573 H         1 <0>         0.1065
     37 H21        -3.9474    2.3415   -0.3930 H         1 <0>         0.0550
     38 H22        -3.5626    2.9581    1.2497 H         1 <0>         0.0906
     39 H23        -2.0019    3.9587    0.8048 H         1 <0>         0.3968
     40 H24        -2.5509    4.1027   -0.9968 H         1 <0>         0.4357
@<TRIPOS>BOND
     1    1    2 1
     2    1   17 1
     3    1   18 1
     4    1   19 1
     5    2    7 ar
     6    2    3 ar
     7    3    4 ar
     8    3   20 1
     9    4    5 ar
    10    4   21 1
    11    5    6 ar
    12    5    9 1
    13    6    7 ar
    14    6   22 1
    15    7    8 1
    16    8   23 1
    17    8   24 1
    18    8   25 1
    19    9   10 1
    20    9   13 1
    21    9   16 1
    22   10   11 1
    23   10   26 1
    24   10   27 1
    25   11   12 1
    26   11   28 1
    27   11   40 1
    28   12   29 1
    29   12   30 1
    30   12   31 1
    31   13   14 1
    32   13   15 1
    33   13   32 1
    34   14   33 1
    35   14   34 1
    36   14   35 1
    37   15   36 1
    38   15   37 1
    39   15   38 1
    40   16   39 1
@<TRIPOS>MOLECULE
ZINC38120365
   34    35     0     0     0
SMALL
USER_CHARGES

@<TRIPOS>ATOM
      1 C1         -0.0187    1.5258    0.0104 C.3       1 <0>        -0.1884
      2 C2          0.0021   -0.0041    0.0020 C.3       1 <0>        -0.0151
      3 N1          0.7126   -0.4907    1.1921 N.4       1 <0>        -0.5073
      4 C3          0.7325   -1.9595    1.1840 C.3       1 <0>         0.0843
      5 H1          1.1628   -2.3119    0.2466 H         1 <0>         0.1562
      6 C4         -0.6962   -2.4897    1.3206 C.3       1 <0>         0.0548
      7 O1         -1.2192   -2.1258    2.5997 O.3       1 <0>        -0.5705
      8 C5          1.5652   -2.4570    2.3374 C.ar      1 <0>        -0.1261
      9 C6          1.7271   -1.6855    3.4472 C.ar      1 <0>        -0.0860
     10 C7          2.4934   -2.1286    4.5233 C.ar      1 <0>        -0.1230
     11 C8          3.1027   -3.3455    4.4958 C.ar      1 <0>        -0.0677
     12 C9          2.9585   -4.1699    3.3673 C.ar      1 <0>        -0.0511
     13 C10         2.1739   -3.7218    2.2751 C.ar      1 <0>        -0.0267
     14 C11         2.0249   -4.5490    1.1486 C.ar      1 <0>        -0.1372
     15 C12         2.6292   -5.7681    1.1238 C.ar      1 <0>        -0.0862
     16 C13         3.3954   -6.2114    2.2005 C.ar      1 <0>        -0.1116
     17 C14         3.5729   -5.4323    3.3022 C.ar      1 <0>        -0.0918
     18 H2          1.0039    1.9031    0.0027 H         1 <0>         0.0818
     19 H3         -0.5459    1.8868   -0.8726 H         1 <0>         0.1086
     20 H4         -0.5289    1.8773    0.9072 H         1 <0>         0.0814
     21 H5         -1.0205   -0.3814    0.0098 H         1 <0>         0.1315
     22 H6          0.5123   -0.3556   -0.8948 H         1 <0>         0.1328
     23 H7          1.6592   -0.1414    1.1850 H         1 <0>         0.4302
     24 H8         -1.3199   -2.0592    0.5372 H         1 <0>         0.0759
     25 H9         -0.6914   -3.5756    1.2256 H         1 <0>         0.0945
     26 H10        -2.1237   -2.4298    2.7558 H         1 <0>         0.4075
     27 H11         1.2549   -0.7154    3.4941 H         1 <0>         0.1152
     28 H12         2.6059   -1.4968    5.3920 H         1 <0>         0.1355
     29 H13         3.6942   -3.6755    5.3370 H         1 <0>         0.1391
     30 H14         1.4336   -4.2191    0.3073 H         1 <0>         0.1241
     31 H15         2.5131   -6.4017    0.2570 H         1 <0>         0.1319
     32 H16         3.8640   -7.1834    2.1553 H         1 <0>         0.1337
     33 H17         4.1700   -5.7886    4.1285 H         1 <0>         0.1372
     34 H18         0.2403   -0.1653    2.0223 H         1 <0>         0.4324
@<TRIPOS>BOND
     1    1    2 1
     2    1   18 1
     3    1   19 1
     4    1   20 1
     5    2    3 1
     6    2   21 1
     7    2   22 1
     8    3    4 1
     9    3   23 1
    10    3   34 1
    11    4    5 1
    12    4    6 1
    13    4    8 1
    14    6    7 1
    15    6   24 1
    16    6   25 1
    17    7   26 1
    18    8   13 ar
    19    8    9 ar
    20    9   10 ar
    21    9   27 1
    22   10   11 ar
    23   10   28 1
    24   11   12 ar
    25   11   29 1
    26   12   17 ar
    27   12   13 ar
    28   13   14 ar
    29   14   15 ar
    30   14   30 1
    31   15   16 ar
    32   15   31 1
    33   16   17 ar
    34   16   32 1
    35   17   33 1
@<TRIPOS>MOLECULE
ZINC44406117
   26    26     0     0     0
SMALL
USER_CHARGES

@<TRIPOS>ATOM
      1 C1         -0.0187    1.5258    0.0104 C.3       1 <0>        -0.1764
      2 C2          0.0021   -0.0041    0.0020 C.3       1 <0>        -0.1475
      3 C3          0.7421   -0.5109    1.2415 C.3       1 <0>         0.0323
      4 H1          1.7350   -0.0630    1.2804 H         1 <0>         0.1477
      5 C4          0.8719   -2.0337    1.1708 C.3       1 <0>        -0.1012
      6 C5          1.7061   -2.5210    2.3275 C.ar      1 <0>        -0.0521
      7 C6          3.0833   -2.6302    2.2124 C.ar      1 <0>        -0.1441
      8 C7          3.8170   -3.0807    3.2952 C.ar      1 <0>         0.2076
      9 N1          3.2202   -3.4049    4.4269 N.ar      1 <0>        -0.4619
     10 C8          1.9115   -3.3132    4.5715 C.ar      1 <0>         0.2064
     11 C9          1.1148   -2.8649    3.5332 C.ar      1 <0>        -0.1839
     12 Cl1         1.1823   -3.7544    6.0839 Cl        1 <0>         0.0080
     13 Cl2         5.5422   -3.2220    3.1637 Cl        1 <0>         0.0124
     14 N2         -0.0103   -0.1391    2.4472 N.4       1 <0>        -0.6410
     15 H2          1.0039    1.9031    0.0027 H         1 <0>         0.0739
     16 H3         -0.5459    1.8868   -0.8726 H         1 <0>         0.0865
     17 H4         -0.5289    1.8773    0.9072 H         1 <0>         0.0528
     18 H5         -1.0205   -0.3814    0.0098 H         1 <0>         0.0931
     19 H6          0.5123   -0.3556   -0.8948 H         1 <0>         0.1166
     20 H7         -0.1187   -2.4856    1.2215 H         1 <0>         0.1128
     21 H8          1.3517   -2.3143    0.2332 H         1 <0>         0.1350
     22 H9          3.5772   -2.3672    1.2887 H         1 <0>         0.1635
     23 H10         0.0449   -2.7877    3.6591 H         1 <0>         0.1553
     24 H11         0.4777   -0.4733    3.2646 H         1 <0>         0.4316
     25 H12        -0.0960    0.8652    2.4938 H         1 <0>         0.4381
     26 H13        -0.9295   -0.5537    2.4112 H         1 <0>         0.4344
@<TRIPOS>BOND
     1    1    2 1
     2    1   15 1
     3    1   16 1
     4    1   17 1
     5    2    3 1
     6    2   18 1
     7    2   19 1
     8    3    4 1
     9    3    5 1
    10    3   14 1
    11    5    6 1
    12    5   20 1
    13    5   21 1
    14    6   11 ar
    15    6    7 ar
    16    7    8 ar
    17    7   22 1
    18    8    9 ar
    19    8   13 1
    20    9   10 ar
    21   10   11 ar
    22   10   12 1
    23   11   23 1
    24   14   24 1
    25   14   25 1
    26   14   26 1
@<TRIPOS>MOLECULE
ZINC55028879
   38    39     0     0     0
SMALL
USER_CHARGES

@<TRIPOS>ATOM
      1 C1         -0.0187    1.5258    0.0104 C.3       1 <0>        -0.1848
      2 C2          0.0021   -0.0041    0.0020 C.3       1 <0>         0.0225
      3 C3          0.7421   -0.5109    1.2415 C.3       1 <0>        -0.1864
      4 N1         -1.3761   -0.5125    0.0124 N.4       1 <0>        -0.5076
      5 C4         -1.3591   -1.9758   -0.1163 C.3       1 <0>         0.0063
      6 C5         -2.7945   -2.5054   -0.1054 C.3       1 <0>         0.1129
      7 C6         -2.7791   -4.0384   -0.0873 C.3       1 <0>        -0.1404
      8 C7         -4.2041   -4.5374   -0.3177 C.3       1 <0>        -0.0891
      9 C8         -5.1609   -3.8633    0.6305 C.ar      1 <0>        -0.0877
     10 C9         -6.4030   -4.4541    0.8245 C.ar      1 <0>        -0.1125
     11 C10        -7.3257   -3.8826    1.6757 C.ar      1 <0>        -0.1065
     12 C11        -7.0129   -2.7117    2.3412 C.ar      1 <0>        -0.1124
     13 C12        -5.7791   -2.1249    2.1518 C.ar      1 <0>        -0.1143
     14 C13        -4.8471   -2.7007    1.2977 C.ar      1 <0>        -0.0951
     15 C14        -3.5139   -2.0155    1.1496 C.3       1 <0>        -0.1196
     16 O1         -3.4863   -2.0441   -1.2676 O.3       1 <0>        -0.5609
     17 H1          1.0039    1.9031    0.0027 H         1 <0>         0.1078
     18 H2         -0.5459    1.8868   -0.8726 H         1 <0>         0.0826
     19 H3         -0.5289    1.8773    0.9072 H         1 <0>         0.0812
     20 H4          0.5123   -0.3556   -0.8948 H         1 <0>         0.1402
     21 H5          0.7568   -1.6008    1.2356 H         1 <0>         0.0810
     22 H6          1.7647   -0.1336    1.2338 H         1 <0>         0.1077
     23 H7          0.2319   -0.1594    2.1383 H         1 <0>         0.0819
     24 H8         -1.8225   -0.2564    0.8803 H         1 <0>         0.4224
     25 H9         -0.8769   -2.2525   -1.0538 H         1 <0>         0.1430
     26 H10        -0.8062   -2.4075    0.7180 H         1 <0>         0.1462
     27 H11        -2.1280   -4.4083   -0.8794 H         1 <0>         0.0894
     28 H12        -2.4186   -4.3904    0.8793 H         1 <0>         0.0877
     29 H13        -4.5003   -4.3181   -1.3435 H         1 <0>         0.0861
     30 H14        -4.2380   -5.6149   -0.1569 H         1 <0>         0.0933
     31 H15        -6.6485   -5.3681    0.3042 H         1 <0>         0.1279
     32 H16        -8.2893   -4.3480    1.8216 H         1 <0>         0.1299
     33 H17        -7.7323   -2.2580    3.0068 H         1 <0>         0.1290
     34 H18        -5.5357   -1.2101    2.6717 H         1 <0>         0.1224
     35 H19        -2.8996   -2.2318    2.0236 H         1 <0>         0.0968
     36 H20        -3.6692   -0.9390    1.0777 H         1 <0>         0.0794
     37 H21        -4.4040   -2.3439   -1.3240 H         1 <0>         0.4041
     38 H22        -1.8879   -0.1129   -0.7598 H         1 <0>         0.4354
@<TRIPOS>BOND
     1    1    2 1
     2    1   17 1
     3    1   18 1
     4    1   19 1
     5    2    3 1
     6    2    4 1
     7    2   20 1
     8    3   21 1
     9    3   22 1
    10    3   23 1
    11    4    5 1
    12    4   24 1
    13    4   38 1
    14    5    6 1
    15    5   25 1
    16    5   26 1
    17    6   15 1
    18    6    7 1
    19    6   16 1
    20    7    8 1
    21    7   27 1
    22    7   28 1
    23    8    9 1
    24    8   29 1
    25    8   30 1
    26    9   14 ar
    27    9   10 ar
    28   10   11 ar
    29   10   31 1
    30   11   12 ar
    31   11   32 1
    32   12   13 ar
    33   12   33 1
    34   13   14 ar
    35   13   34 1
    36   14   15 1
    37   15   35 1
    38   15   36 1
    39   16   37 1
@<TRIPOS>MOLECULE
ZINC63025071
   32    33     0     0     0
SMALL
USER_CHARGES

@<TRIPOS>ATOM
      1 C1         -0.0187    1.5258    0.0104 C.3       1 <0>        -0.1596
      2 C2          0.0021   -0.0041    0.0020 C.3       1 <0>        -0.1382
      3 C3         -1.4333   -0.5336    0.0129 C.3       1 <0>        -0.1460
      4 C4         -1.4126   -2.0635    0.0045 C.3       1 <0>         0.0367
      5 H1         -0.8263   -2.4142   -0.8449 H         1 <0>         0.1422
      6 C5         -2.8437   -2.5923   -0.1104 C.3       1 <0>        -0.0905
      7 C6         -2.8155   -4.0933   -0.2423 C.ar      1 <0>         0.1370
      8 C7         -2.7385   -4.6789   -1.5254 C.ar      1 <0>        -0.1251
      9 C8         -2.6770   -4.0458   -2.8327 C.2       1 <0>        -0.1572
     10 C9         -2.6067   -4.8127   -3.9308 C.2       1 <0>        -0.1277
     11 S1         -2.6179   -6.4737   -3.2823 S.3       1 <0>         0.0940
     12 C10        -2.7166   -6.0937   -1.5549 C.ar      1 <0>        -0.0964
     13 C11        -2.7693   -6.8284   -0.3882 C.ar      1 <0>        -0.1023
     14 C12        -2.8438   -6.1609    0.8065 C.ar      1 <0>         0.1088
     15 N1         -2.8572   -4.8379    0.8351 N.ar      1 <0>        -0.4996
     16 N2         -0.8087   -2.5519    1.2514 N.4       1 <0>        -0.6348
     17 H2          1.0039    1.9031    0.0027 H         1 <0>         0.0669
     18 H3         -0.5459    1.8868   -0.8726 H         1 <0>         0.0649
     19 H4         -0.5289    1.8773    0.9072 H         1 <0>         0.0614
     20 H5          0.5123   -0.3556   -0.8948 H         1 <0>         0.0784
     21 H6          0.5293   -0.3651    0.8851 H         1 <0>         0.0580
     22 H7         -1.9435   -0.1821    0.9097 H         1 <0>         0.0939
     23 H8         -1.9605   -0.1726   -0.8702 H         1 <0>         0.1150
     24 H9         -3.4057   -2.3165    0.7818 H         1 <0>         0.1133
     25 H10        -3.3216   -2.1593   -0.9892 H         1 <0>         0.1283
     26 H11        -2.6882   -2.9692   -2.9187 H         1 <0>         0.1455
     27 H12        -2.5561   -4.4987   -4.9629 H         1 <0>         0.2010
     28 H13        -2.7526   -7.9079   -0.4158 H         1 <0>         0.1527
     29 H14        -2.8863   -6.7181    1.7308 H         1 <0>         0.1771
     30 H15        -1.3514   -2.2272    2.0376 H         1 <0>         0.4357
     31 H16        -0.7950   -3.5608    1.2458 H         1 <0>         0.4339
     32 H17         0.1351   -2.2031    1.3272 H         1 <0>         0.4329
@<TRIPOS>BOND
     1    1    2 1
     2    1   17 1
     3    1   18 1
     4    1   19 1
     5    2    3 1
     6    2   20 1
     7    2   21 1
     8    3    4 1
     9    3   22 1
    10    3   23 1
    11    4    5 1
    12    4    6 1
    13    4   16 1
    14    6    7 1
    15    6   24 1
    16    6   25 1
    17    7   15 ar
    18    7    8 ar
    19    8   12 ar
    20    8    9 1
    21    9   10 2
    22    9   26 1
    23   10   11 1
    24   10   27 1
    25   11   12 1
    26   12   13 ar
    27   13   14 ar
    28   13   28 1
    29   14   15 ar
    30   14   29 1
    31   16   30 1
    32   16   31 1
    33   16   32 1
@<TRIPOS>MOLECULE
ZINC12306042
   64    67     0     0     0
SMALL
USER_CHARGES
(5S)-3-[[3-(2,5-dimethylphenyl)-1H-pyrazol-4-yl]methyl]-7-(2-methoxyethyl)-3,7-diazaspiro[4.5]decane
@<TRIPOS>ATOM
      1 C1         -2.8760    7.1377   -1.2139 C.3       1 <0>        -0.1187
      2 C2         -3.5034    5.7676   -1.2285 C.ar      1 <0>        -0.0824
      3 C3         -4.8386    5.6231   -1.5606 C.ar      1 <0>        -0.0919
      4 C4         -5.4206    4.3687   -1.5764 C.ar      1 <0>        -0.0992
      5 C5         -4.6712    3.2533   -1.2605 C.ar      1 <0>        -0.0423
      6 C6         -3.3263    3.3930   -0.9253 C.ar      1 <0>        -0.0390
      7 C7         -2.7449    4.6593   -0.9110 C.ar      1 <0>        -0.1472
      8 C8         -2.5171    2.1980   -0.5788 C.2       1 <0>         0.1430
      9 C9         -1.1466    2.1911   -0.2540 C.2       1 <0>        -0.3177
     10 C10        -0.7871    0.9134   -0.0030 C.2       1 <0>         0.1228
     11 N1         -1.8790    0.1346   -0.1599 N.pl3     1 <0>        -0.4543
     12 H1         -1.9136   -0.8579   -0.0428 H         1 <0>         0.4640
     13 N2         -2.9548    0.9583   -0.5152 N.2       1 <0>        -0.2484
     14 C11        -0.2422    3.3951   -0.1962 C.3       1 <0>         0.0844
     15 C12         0.9206    2.9229   -2.2766 C.3       1 <0>        -0.0072
     16 C13         1.7899    3.8165   -3.1980 C.3       1 <0>        -0.1460
     17 C14         2.0021    5.0635   -2.3109 C.3       1 <0>        -0.0970
     18 C15         0.6789    5.1935   -1.5410 C.3       1 <0>        -0.0037
     19 C16         2.2426    6.2915   -3.1797 C.3       1 <0>        -0.1246
     20 C17         3.5765    6.1339   -3.9178 C.3       1 <0>        -0.1450
     21 C18         4.6932    5.9094   -2.8957 C.3       1 <0>        -0.0135
     22 C19         3.1633    4.8363   -1.3527 C.3       1 <0>        -0.0011
     23 C20         5.5367    4.3700   -1.2285 C.3       1 <0>         0.0004
     24 C21         5.9755    5.6276   -0.4755 C.3       1 <0>         0.0259
     25 O1          4.9342    6.0387    0.4126 O.3       1 <0>        -0.4052
     26 C22         5.2441    7.2112    1.1684 C.3       1 <0>         0.0255
     27 C23        -5.3069    1.8871   -1.2776 C.3       1 <0>        -0.1353
     28 H2         -2.9017    7.5383   -0.2005 H         1 <0>         0.0804
     29 H3         -1.8417    7.0672   -1.5506 H         1 <0>         0.0559
     30 H4         -3.4307    7.7985   -1.8800 H         1 <0>         0.0788
     31 H5         -5.4286    6.4932   -1.8081 H         1 <0>         0.1361
     32 H6         -6.4634    4.2616   -1.8360 H         1 <0>         0.1386
     33 H7         -1.7027    4.7732   -0.6518 H         1 <0>         0.1074
     34 H8          0.2001    0.5743    0.2744 H         1 <0>         0.1885
     35 H9         -0.7295    4.1888    0.3701 H         1 <0>         0.1444
     36 H10         0.6941    3.1232    0.2911 H         1 <0>         0.1354
     37 H11         1.5496    2.3820   -1.5696 H         1 <0>         0.1332
     38 H12         0.3307    2.2255   -2.8713 H         1 <0>         0.1419
     39 H13         1.2538    4.0736   -4.1116 H         1 <0>         0.1239
     40 H14         2.7399    3.3341   -3.4276 H         1 <0>         0.1059
     41 H15         0.0356    5.9255   -2.0293 H         1 <0>         0.1487
     42 H16         0.8727    5.4974   -0.5123 H         1 <0>         0.1469
     43 H17         1.4345    6.3885   -3.9047 H         1 <0>         0.1059
     44 H18         2.2773    7.1812   -2.5509 H         1 <0>         0.0987
     45 H19         3.7841    7.0371   -4.4916 H         1 <0>         0.1246
     46 H20         3.5221    5.2788   -4.5916 H         1 <0>         0.0919
     47 H21         4.7497    6.7673   -2.2258 H         1 <0>         0.1375
     48 H22         5.6437    5.7932   -3.4165 H         1 <0>         0.1374
     49 H23         3.2449    5.6852   -0.6738 H         1 <0>         0.1641
     50 H24         2.9865    3.9276   -0.7773 H         1 <0>         0.1266
     51 H25         5.2257    3.6084   -0.5134 H         1 <0>         0.1395
     52 H26         6.3695    3.9928   -1.8220 H         1 <0>         0.1493
     53 H27         6.8775    5.4120    0.0973 H         1 <0>         0.1031
     54 H28         6.1804    6.4255   -1.1892 H         1 <0>         0.0798
     55 H29         6.1309    7.0284    1.7753 H         1 <0>         0.0600
     56 H30         5.4338    8.0420    0.4888 H         1 <0>         0.0540
     57 H31         4.4039    7.4575    1.8177 H         1 <0>         0.1014
     58 H32        -5.7178    1.6651   -0.2928 H         1 <0>         0.0804
     59 H33        -6.1068    1.8678   -2.0178 H         1 <0>         0.0727
     60 H34        -4.5559    1.1401   -1.5348 H         1 <0>         0.0958
     61 N3          0.0301    3.8687   -1.5787 N.4       1 <0>        -0.4067
     62 H35        -0.8576    3.9392   -2.0899 H         1 <0>         0.4389
     63 N4          4.4093    4.6750   -2.1339 N.4       1 <0>        -0.3902
     64 H36         4.2909    3.8966   -2.7930 H         1 <0>         0.4232
@<TRIPOS>BOND
     1    1    2 1
     2    1   28 1
     3    1   29 1
     4    1   30 1
     5    2    7 ar
     6    2    3 ar
     7    3    4 ar
     8    3   31 1
     9    4    5 ar
    10    4   32 1
    11    5    6 ar
    12    5   27 1
    13    6    7 ar
    14    6    8 1
    15    7   33 1
    16    8   13 2
    17    8    9 1
    18    9   10 2
    19    9   14 1
    20   10   11 1
    21   10   34 1
    22   11   12 1
    23   11   13 1
    24   14   35 1
    25   14   36 1
    26   14   61 1
    27   15   16 1
    28   15   37 1
    29   15   38 1
    30   15   61 1
    31   16   17 1
    32   16   39 1
    33   16   40 1
    34   17   22 1
    35   17   18 1
    36   17   19 1
    37   18   41 1
    38   18   42 1
    39   18   61 1
    40   19   20 1
    41   19   43 1
    42   19   44 1
    43   20   21 1
    44   20   45 1
    45   20   46 1
    46   21   47 1
    47   21   48 1
    48   21   63 1
    49   22   49 1
    50   22   50 1
    51   22   63 1
    52   23   24 1
    53   23   51 1
    54   23   52 1
    55   23   63 1
    56   24   25 1
    57   24   53 1
    58   24   54 1
    59   25   26 1
    60   26   55 1
    61   26   56 1
    62   26   57 1
    63   27   58 1
    64   27   59 1
    65   27   60 1
    66   61   62 1
    67   63   64 1
@<TRIPOS>MOLECULE
ZINC40622737
   50    52     0     0     0
SMALL
USER_CHARGES

@<TRIPOS>ATOM
      1 C1         -0.0187    1.5258    0.0104 C.3       1 <0>        -0.1863
      2 C2          0.0021   -0.0041    0.0020 C.3       1 <0>         0.0278
      3 C3          0.7421   -0.5109    1.2415 C.3       1 <0>        -0.1862
      4 N1         -1.3761   -0.5125    0.0124 N.4       1 <0>        -0.3925
      5 C4         -2.0799   -0.1036   -1.2224 C.3       1 <0>        -0.0067
      6 C5         -3.0200   -1.2599   -1.6105 C.3       1 <0>        -0.1620
      7 C6         -2.7800   -2.3513   -0.5422 C.3       1 <0>        -0.1443
      8 H1         -3.5281   -2.2886    0.2480 H         1 <0>         0.1316
      9 C7         -1.3741   -1.9978    0.0044 C.3       1 <0>         0.0050
     10 C8         -2.7835   -3.7424   -1.1792 C.3       1 <0>         0.0026
     11 N2         -4.1288   -4.0460   -1.6852 N.4       1 <0>        -0.4939
     12 C9         -4.1321   -5.3816   -2.2968 C.3       1 <0>        -0.0216
     13 C10        -3.7346   -5.3799   -3.7823 C.3       1 <0>        -0.1304
     14 C11        -5.2250   -5.1725   -4.0997 C.3       1 <0>        -0.0770
     15 C12        -5.5253   -5.8477   -2.7511 C.3       1 <0>        -0.1347
     16 C13        -5.7042   -5.9625   -5.2903 C.ar      1 <0>        -0.0864
     17 C14        -5.6223   -7.3424   -5.2823 C.ar      1 <0>        -0.1104
     18 C15        -6.0622   -8.0674   -6.3738 C.ar      1 <0>        -0.0840
     19 C16        -6.5844   -7.4119   -7.4742 C.ar      1 <0>        -0.0813
     20 C17        -6.6662   -6.0311   -7.4818 C.ar      1 <0>        -0.0844
     21 C18        -6.2310   -5.3072   -6.3877 C.ar      1 <0>        -0.1029
     22 Br1        -7.1858   -8.4031   -8.9681 Br        1 <0>        -0.0254
     23 H2          1.0039    1.9031    0.0027 H         1 <0>         0.1113
     24 H3         -0.5459    1.8868   -0.8726 H         1 <0>         0.0815
     25 H4         -0.5289    1.8773    0.9072 H         1 <0>         0.0838
     26 H5          0.5123   -0.3556   -0.8948 H         1 <0>         0.1387
     27 H6          0.2319   -0.1594    2.1383 H         1 <0>         0.0838
     28 H7          0.7568   -1.6008    1.2356 H         1 <0>         0.0795
     29 H8          1.7647   -0.1336    1.2338 H         1 <0>         0.1114
     30 H9         -2.6600    0.8004   -1.0371 H         1 <0>         0.1419
     31 H10        -1.3583    0.0720   -2.0203 H         1 <0>         0.1397
     32 H11        -4.0580   -0.9281   -1.5859 H         1 <0>         0.1172
     33 H12        -2.7662   -1.6377   -2.6010 H         1 <0>         0.1111
     34 H13        -0.5968   -2.3779   -0.6585 H         1 <0>         0.1442
     35 H14        -1.2447   -2.3878    1.0140 H         1 <0>         0.1497
     36 H15        -2.0711   -3.7662   -2.0039 H         1 <0>         0.1434
     37 H16        -2.5001   -4.4845   -0.4328 H         1 <0>         0.1497
     38 H17        -4.7882   -4.0239   -0.9218 H         1 <0>         0.4347
     39 H18        -3.5970   -6.1212   -1.7011 H         1 <0>         0.1601
     40 H19        -3.1063   -4.5354   -4.0653 H         1 <0>         0.0922
     41 H20        -3.3429   -6.3356   -4.1306 H         1 <0>         0.1323
     42 H21        -5.5213   -4.1243   -4.1389 H         1 <0>         0.1059
     43 H22        -5.6232   -6.9312   -2.8174 H         1 <0>         0.1340
     44 H23        -6.3427   -5.3807   -2.2015 H         1 <0>         0.0989
     45 H24        -5.2142   -7.8541   -4.4232 H         1 <0>         0.1303
     46 H25        -5.9978   -9.1455   -6.3676 H         1 <0>         0.1401
     47 H26        -7.0739   -5.5189   -8.3407 H         1 <0>         0.1400
     48 H27        -6.2986   -4.2294   -6.3918 H         1 <0>         0.1311
     49 H28        -4.3911   -3.3590   -2.3762 H         1 <0>         0.4262
     50 H29        -1.8678   -0.1696    0.8241 H         1 <0>         0.4308
@<TRIPOS>BOND
     1    1    2 1
     2    1   23 1
     3    1   24 1
     4    1   25 1
     5    2    3 1
     6    2    4 1
     7    2   26 1
     8    3   27 1
     9    3   28 1
    10    3   29 1
    11    4    9 1
    12    4    5 1
    13    4   50 1
    14    5    6 1
    15    5   30 1
    16    5   31 1
    17    6    7 1
    18    6   32 1
    19    6   33 1
    20    7    8 1
    21    7    9 1
    22    7   10 1
    23    9   34 1
    24    9   35 1
    25   10   11 1
    26   10   36 1
    27   10   37 1
    28   11   12 1
    29   11   38 1
    30   11   49 1
    31   12   15 1
    32   12   13 1
    33   12   39 1
    34   13   14 1
    35   13   40 1
    36   13   41 1
    37   14   15 1
    38   14   16 1
    39   14   42 1
    40   15   43 1
    41   15   44 1
    42   16   21 ar
    43   16   17 ar
    44   17   18 ar
    45   17   45 1
    46   18   19 ar
    47   18   46 1
    48   19   20 ar
    49   19   22 1
    50   20   21 ar
    51   20   47 1
    52   21   48 1
@<TRIPOS>MOLECULE
ZINC51000938
   41    43     0     0     0
SMALL
USER_CHARGES

@<TRIPOS>ATOM
      1 C1         -0.0173    1.4248    0.0099 C.3       1 <0>         0.0130
      2 O1          0.0021   -0.0041    0.0020 O.3       1 <0>        -0.2818
      3 C2          0.6059   -0.6072   -1.0558 C.ar      1 <0>         0.2155
      4 C3          1.1730    0.1604   -2.0625 C.ar      1 <0>        -0.1917
      5 C4          1.7861   -0.4548   -3.1367 C.ar      1 <0>        -0.0191
      6 C5          1.8350   -1.8348   -3.2095 C.ar      1 <0>        -0.2226
      7 C6          1.2708   -2.6027   -2.2080 C.ar      1 <0>        -0.0306
      8 C7          0.6611   -1.9921   -1.1279 C.ar      1 <0>        -0.1298
      9 Br1        -0.1033   -3.0427    0.2461 Br        1 <0>         0.0161
     10 C8          2.5041   -2.5029   -4.3830 C.3       1 <0>         0.1663
     11 H1          3.1928   -1.8142   -4.8724 H         1 <0>         0.2164
     12 C9          1.4686   -3.0104   -5.3683 C.cat     1 <0>         0.5135
     13 N1          0.5981   -2.3190   -6.0272 N.pl3     1 <0>        -0.6172
     14 N2          1.6646   -4.3743   -5.4037 N.pl3     1 <0>        -0.5014
     15 C10         2.6835   -4.7242   -4.5633 C.cat     1 <0>         0.5707
     16 N3          3.2100   -3.7192   -3.9511 N.pl3     1 <0>        -0.5628
     17 C11         3.1474   -6.1451   -4.3712 C.3       1 <0>        -0.1976
     18 C12         3.4295   -6.6088   -2.9408 C.3       1 <0>        -0.1207
     19 C13         4.5893   -6.3608   -3.9074 C.3       1 <0>        -0.1231
     20 C14         0.8926   -5.3121   -6.2227 C.3       1 <0>         0.1118
     21 C15         1.5586   -5.4729   -7.5650 C.2       1 <0>        -0.2549
     22 C16         1.8860   -6.6662   -7.9950 C.2       1 <0>        -0.0810
     23 H2          1.0053    1.8021    0.0021 H         1 <0>         0.0724
     24 H3         -0.5445    1.7859   -0.8732 H         1 <0>         0.0710
     25 H4         -0.5275    1.7763    0.9067 H         1 <0>         0.1242
     26 H5          1.1349    1.2383   -2.0067 H         1 <0>         0.1635
     27 H6          2.2274    0.1427   -3.9208 H         1 <0>         0.1543
     28 H7          1.3100   -3.6804   -2.2673 H         1 <0>         0.1340
     29 H8          0.5585   -1.3562   -5.9159 H         1 <0>         0.4737
     30 H9          2.7269   -6.8745   -5.0635 H         1 <0>         0.1771
     31 H10         3.2796   -5.8862   -2.1386 H         1 <0>         0.1205
     32 H11         3.1945   -7.6436   -2.6916 H         1 <0>         0.1493
     33 H12         5.1173   -7.2325   -4.2941 H         1 <0>         0.1494
     34 H13         5.2024   -5.4751   -3.7411 H         1 <0>         0.1178
     35 H14         0.8465   -6.2792   -5.7219 H         1 <0>         0.1454
     36 H15        -0.1174   -4.9266   -6.3621 H         1 <0>         0.1345
     37 H16         1.7661   -4.6043   -8.1724 H         1 <0>         0.1290
     38 H17         2.3633   -6.7814   -8.9569 H         1 <0>         0.1302
     39 H18         1.6785   -7.5348   -7.3876 H         1 <0>         0.1172
     40 H19        -0.0159   -2.7628   -6.6330 H         1 <0>         0.4594
     41 H20         3.9425   -3.7568   -3.3163 H         1 <0>         0.4878
@<TRIPOS>BOND
     1    1    2 1
     2    1   23 1
     3    1   24 1
     4    1   25 1
     5    2    3 1
     6    3    8 ar
     7    3    4 ar
     8    4    5 ar
     9    4   26 1
    10    5    6 ar
    11    5   27 1
    12    6    7 ar
    13    6   10 1
    14    7    8 ar
    15    7   28 1
    16    8    9 1
    17   10   11 1
    18   10   16 1
    19   10   12 1
    20   12   13 2
    21   12   14 1
    22   13   29 1
    23   13   40 1
    24   14   15 1
    25   14   20 1
    26   15   16 2
    27   15   17 1
    28   16   41 1
    29   17   19 1
    30   17   18 1
    31   17   30 1
    32   18   19 1
    33   18   31 1
    34   18   32 1
    35   19   33 1
    36   19   34 1
    37   20   21 1
    38   20   35 1
    39   20   36 1
    40   21   22 2
    41   21   37 1
    42   22   38 1
    43   22   39 1
@<TRIPOS>MOLECULE
ZINC63770219
   42    44     0     0     0
SMALL
USER_CHARGES

@<TRIPOS>ATOM
      1 C1         -1.2662    1.1823    0.1816 C.3       1 <0>        -0.1157
      2 C2         -0.5849   -0.1584    0.0846 C.ar      1 <0>        -0.1104
      3 C3         -0.5706   -0.8408   -1.1165 C.ar      1 <0>        -0.0687
      4 C4          0.0542   -2.0704   -1.2076 C.ar      1 <0>        -0.1438
      5 C5          0.6675   -2.6226   -0.0949 C.ar      1 <0>         0.1189
      6 C6          0.6556   -1.9437    1.1101 C.ar      1 <0>        -0.1508
      7 C7          0.0336   -0.7056    1.2010 C.ar      1 <0>         0.1443
      8 N1          0.0246   -0.0134    2.4170 N.am      1 <0>        -0.6457
      9 C8         -0.0569   -0.6924    3.5783 C.2       1 <0>         0.5307
     10 O1         -0.0402   -1.9052    3.5742 O.2       1 <0>        -0.4840
     11 C9         -0.1688    0.0552    4.8820 C.3       1 <0>        -0.1975
     12 S1         -0.2598   -1.1296    6.2526 S.3       1 <0>         0.1037
     13 C10        -0.3892   -0.0836    7.7290 C.3       1 <0>         0.2159
     14 H1         -0.4631   -0.7047    8.6217 H         1 <0>         0.2630
     15 N2         -1.5633    0.7910    7.6253 N.pl3     1 <0>        -0.4541
     16 C11        -1.1397    2.0218    7.6557 C.ar      1 <0>         0.3212
     17 C12        -1.8429    3.3118    7.5896 C.ar      1 <0>        -0.0971
     18 C13        -1.1413    4.4593    7.6435 C.ar      1 <0>        -0.0330
     19 C14         0.3107    4.4689    7.7663 C.ar      1 <0>         0.2964
     20 C15         1.0300    3.3221    7.8330 C.ar      1 <0>        -0.2272
     21 C16         0.3428    2.0300    7.7815 C.ar      1 <0>         0.3110
     22 N3          0.7796    0.7993    7.8249 N.pl3     1 <0>        -0.5075
     23 O2          0.9604    5.6584    7.8147 O.3       1 <0>        -0.2363
     24 C17         0.1587    6.8390    7.7404 C.3       1 <0>        -0.0108
     25 F1          1.2771   -3.8248   -0.1867 F         1 <0>        -0.1272
     26 H2         -0.5516    1.9709   -0.0538 H         1 <0>         0.0781
     27 H3         -2.0953    1.2205   -0.5249 H         1 <0>         0.0825
     28 H4         -1.6446    1.3252    1.1938 H         1 <0>         0.0567
     29 H5         -1.0485   -0.4131   -1.9854 H         1 <0>         0.1469
     30 H6          0.0639   -2.6018   -2.1478 H         1 <0>         0.1478
     31 H7          1.1330   -2.3741    1.9780 H         1 <0>         0.1497
     32 H8          0.0770    0.9551    2.4241 H         1 <0>         0.4165
     33 H9          0.7053    0.6935    5.0110 H         1 <0>         0.1354
     34 H10        -1.0691    0.6695    4.8724 H         1 <0>         0.1318
     35 H11        -2.9186    3.3383    7.4978 H         1 <0>         0.2149
     36 H12        -1.6697    5.4000    7.5940 H         1 <0>         0.2095
     37 H13         2.1055    3.3610    7.9237 H         1 <0>         0.2083
     38 H14        -0.3933    6.8448    6.8005 H         1 <0>         0.0936
     39 H15        -0.5433    6.8545    8.5741 H         1 <0>         0.0941
     40 H16         0.8012    7.7181    7.7899 H         1 <0>         0.1463
     41 H17        -2.4867    0.5043    7.5478 H         1 <0>         0.4970
     42 H18         1.7050    0.5201    7.9058 H         1 <0>         0.4959
@<TRIPOS>BOND
     1    1    2 1
     2    1   26 1
     3    1   27 1
     4    1   28 1
     5    2    7 ar
     6    2    3 ar
     7    3    4 ar
     8    3   29 1
     9    4    5 ar
    10    4   30 1
    11    5    6 ar
    12    5   25 1
    13    6    7 ar
    14    6   31 1
    15    7    8 1
    16    8    9 am
    17    8   32 1
    18    9   10 2
    19    9   11 1
    20   11   12 1
    21   11   33 1
    22   11   34 1
    23   12   13 1
    24   13   14 1
    25   13   22 1
    26   13   15 1
    27   15   16 2
    28   15   41 1
    29   16   21 ar
    30   16   17 ar
    31   17   18 ar
    32   17   35 1
    33   18   19 ar
    34   18   36 1
    35   19   20 ar
    36   19   23 1
    37   20   21 ar
    38   20   37 1
    39   21   22 2
    40   22   42 1
    41   23   24 1
    42   24   38 1
    43   24   39 1
    44   24   40 1
@<TRIPOS>MOLECULE
ZINC66536193
   61    64     0     0     0
SMALL
USER_CHARGES

@<TRIPOS>ATOM
      1 C1          3.8992   -4.8903   -1.0096 C.ar      1 <0>        -0.1072
      2 C2          3.6940   -3.8046   -1.8407 C.ar      1 <0>        -0.1181
      3 C3          3.8872   -2.5268   -1.3585 C.ar      1 <0>        -0.1224
      4 C4          4.2887   -2.3213   -0.0447 C.ar      1 <0>        -0.0885
      5 C5          4.4978   -3.4024    0.7814 C.ar      1 <0>        -0.0666
      6 C6          4.2984   -4.6883    0.2952 C.ar      1 <0>        -0.1170
      7 C7          4.9489   -3.2551    2.2110 C.3       1 <0>        -0.0874
      8 C8          4.7064   -1.8310    2.7069 C.3       1 <0>        -0.1207
      9 C9          5.3143   -0.8552    1.6925 C.3       1 <0>        -0.1148
     10 C10         4.4741   -0.8997    0.4179 C.3       1 <0>        -0.0532
     11 H1          3.4983   -0.4557    0.6148 H         1 <0>         0.0902
     12 C11         5.1793   -0.1000   -0.6795 C.3       1 <0>         0.1172
     13 N1          5.2954    1.3004   -0.2651 N.am      1 <0>        -0.6961
     14 C12         5.7987    2.2156   -1.1169 C.2       1 <0>         0.4964
     15 O1          6.0717    1.8990   -2.2554 O.2       1 <0>        -0.5161
     16 C13         6.0223    3.6324   -0.6546 C.3       1 <0>        -0.0513
     17 N2          6.7057    4.3902   -1.7113 N.4       1 <0>        -0.3686
     18 C14         8.0683    3.8512   -1.9083 C.3       1 <0>        -0.0122
     19 C15         8.9423    5.0907   -2.2234 C.3       1 <0>        -0.1355
     20 C16         8.3154    6.1612   -1.2918 C.3       1 <0>        -0.1588
     21 C17         6.8137    5.8064   -1.3157 C.3       1 <0>        -0.0001
     22 H2          6.2958    6.4345   -2.0406 H         1 <0>         0.1632
     23 C18         6.2096    6.0056    0.0758 C.3       1 <0>        -0.0308
     24 N3          6.2654    7.4290    0.4346 N.4       1 <0>        -0.3926
     25 C19         5.3285    8.2084   -0.4146 C.3       1 <0>        -0.0181
     26 C20         5.0806    9.4920    0.4169 C.3       1 <0>        -0.1448
     27 C21         5.0454    8.9620    1.8687 C.3       1 <0>        -0.1471
     28 C22         5.8040    7.6226    1.8264 C.3       1 <0>        -0.0087
     29 H3          3.7431   -5.8929   -1.3794 H         1 <0>         0.1284
     30 H4          3.3840   -3.9565   -2.8641 H         1 <0>         0.1261
     31 H5          3.7252   -1.6791   -2.0079 H         1 <0>         0.1186
     32 H6          4.4576   -5.5369    0.9440 H         1 <0>         0.1268
     33 H7          4.3930   -3.9532    2.8370 H         1 <0>         0.0817
     34 H8          6.0128   -3.4825    2.2774 H         1 <0>         0.0799
     35 H9          3.6350   -1.6501    2.7937 H         1 <0>         0.0692
     36 H10         5.1821   -1.6946    3.6780 H         1 <0>         0.0741
     37 H11         5.3049    0.1544    2.1033 H         1 <0>         0.0596
     38 H12         6.3390   -1.1508    1.4673 H         1 <0>         0.0718
     39 H13         6.1739   -0.5128   -0.8477 H         1 <0>         0.0855
     40 H14         4.6006   -0.1594   -1.6012 H         1 <0>         0.0901
     41 H15         5.0099    1.5689    0.6222 H         1 <0>         0.4095
     42 H16         5.0619    4.0991   -0.4359 H         1 <0>         0.1604
     43 H17         6.6375    3.6282    0.2452 H         1 <0>         0.1620
     44 H18         8.4178    3.3616   -0.9994 H         1 <0>         0.1357
     45 H19         8.0830    3.1537   -2.7458 H         1 <0>         0.1570
     46 H20         9.9852    4.9094   -1.9635 H         1 <0>         0.1313
     47 H21         8.8469    5.3799   -3.2701 H         1 <0>         0.1110
     48 H22         8.7157    6.0751   -0.2817 H         1 <0>         0.1085
     49 H23         8.4812    7.1626   -1.6891 H         1 <0>         0.1274
     50 H24         5.1719    5.6721    0.0726 H         1 <0>         0.1531
     51 H25         6.7756    5.4249    0.8042 H         1 <0>         0.1539
     52 H26         5.7895    8.4530   -1.3716 H         1 <0>         0.1396
     53 H27         4.3979    7.6607   -0.5635 H         1 <0>         0.1393
     54 H28         5.8978   10.2010    0.2848 H         1 <0>         0.1043
     55 H29         4.1269    9.9468    0.1491 H         1 <0>         0.1249
     56 H30         5.5474    9.6602    2.5386 H         1 <0>         0.1134
     57 H31         4.0155    8.8036    2.1888 H         1 <0>         0.1103
     58 H32         5.1375    6.8092    2.1132 H         1 <0>         0.1353
     59 H33         6.6604    7.6595    2.4998 H         1 <0>         0.1412
     60 H34         6.1859    4.3170   -2.5730 H         1 <0>         0.4467
     61 H35         7.2059    7.7786    0.3281 H         1 <0>         0.4325
@<TRIPOS>BOND
     1    1    6 ar
     2    1    2 ar
     3    1   29 1
     4    2    3 ar
     5    2   30 1
     6    3    4 ar
     7    3   31 1
     8    4   10 1
     9    4    5 ar
    10    5    6 ar
    11    5    7 1
    12    6   32 1
    13    7    8 1
    14    7   33 1
    15    7   34 1
    16    8    9 1
    17    8   35 1
    18    8   36 1
    19    9   10 1
    20    9   37 1
    21    9   38 1
    22   10   11 1
    23   10   12 1
    24   12   13 1
    25   12   39 1
    26   12   40 1
    27   13   14 am
    28   13   41 1
    29   14   15 2
    30   14   16 1
    31   16   17 1
    32   16   42 1
    33   16   43 1
    34   17   21 1
    35   17   18 1
    36   17   60 1
    37   18   19 1
    38   18   44 1
    39   18   45 1
    40   19   20 1
    41   19   46 1
    42   19   47 1
    43   20   21 1
    44   20   48 1
    45   20   49 1
    46   21   22 1
    47   21   23 1
    48   23   24 1
    49   23   50 1
    50   23   51 1
    51   24   28 1
    52   24   25 1
    53   24   61 1
    54   25   26 1
    55   25   52 1
    56   25   53 1
    57   26   27 1
    58   26   54 1
    59   26   55 1
    60   27   28 1
    61   27   56 1
    62   27   57 1
    63   28   58 1
    64   28   59 1
@<TRIPOS>MOLECULE
ZINC12993668
   55    58     0     0     0
SMALL
USER_CHARGES
(2R)-2-[[(2R)-2-(1H-indol-3-yl)-2-(2-thienyl)ethyl]amino]-1-(1-piperidyl)propan-1-one
@<TRIPOS>ATOM
      1 C1          0.7684    4.0223   -4.1172 C.3       1 <0>        -0.1781
      2 C2          2.2182    4.2075   -3.6647 C.3       1 <0>         0.0054
      3 H1          2.3425    5.2046   -3.2423 H         1 <0>         0.1620
      4 C3          3.1382    4.0446   -4.8472 C.2       1 <0>         0.5018
      5 O1          3.7402    3.0042   -5.0084 O.2       1 <0>        -0.5258
      6 N1          3.2919    5.0552   -5.7256 N.am      1 <0>        -0.5844
      7 C4          2.6525    6.3567   -5.4888 C.3       1 <0>         0.0926
      8 C5          3.7285    7.4506   -5.5641 C.3       1 <0>        -0.1373
      9 C6          4.4618    7.3454   -6.9032 C.3       1 <0>        -0.1269
     10 C7          5.1524    5.9833   -7.0030 C.3       1 <0>        -0.1367
     11 C8          4.0971    4.8745   -6.9412 C.3       1 <0>         0.1063
     12 C9          2.1374    3.6506   -1.3097 C.3       1 <0>        -0.0012
     13 C10         2.4943    2.5776   -0.2790 C.3       1 <0>         0.0725
     14 H2          3.5560    2.3419   -0.3527 H         1 <0>         0.1191
     15 C11         1.6842    1.3353   -0.5461 C.2       1 <0>        -0.2063
     16 C12         2.1130    0.0832   -0.8388 C.2       1 <0>        -0.1196
     17 C13         1.1785   -0.9136   -1.0481 C.2       1 <0>        -0.1659
     18 C14        -0.1391   -0.6095   -0.9544 C.2       1 <0>        -0.1398
     19 S1         -0.0893    1.1309   -0.5596 S.3       1 <0>         0.0423
     20 C15         2.1882    3.0891    1.1051 C.2       1 <0>        -0.1948
     21 C16         0.9886    3.4777    1.5655 C.2       1 <0>         0.0861
     22 N2          1.0971    3.8799    2.8689 N.pl3     1 <0>        -0.5841
     23 H3          0.3636    4.2030    3.4152 H         1 <0>         0.4235
     24 C17         2.4023    3.7568    3.2897 C.ar      1 <0>         0.0965
     25 C18         3.1420    3.2505    2.2051 C.ar      1 <0>        -0.0925
     26 C19         4.5109    3.0160    2.3447 C.ar      1 <0>        -0.0816
     27 C20         5.1258    3.2766    3.5370 C.ar      1 <0>        -0.1313
     28 C21         4.4000    3.7729    4.6109 C.ar      1 <0>        -0.0917
     29 C22         3.0493    4.0186    4.4927 C.ar      1 <0>        -0.1225
     30 H4          0.5478    4.7205   -4.9246 H         1 <0>         0.1108
     31 H5          0.6258    3.0012   -4.4708 H         1 <0>         0.0917
     32 H6          0.0989    4.2133   -3.2785 H         1 <0>         0.0984
     33 H7          1.8928    6.5345   -6.2500 H         1 <0>         0.0891
     34 H8          2.1915    6.3630   -4.5011 H         1 <0>         0.0836
     35 H9          4.4400    7.3212   -4.7485 H         1 <0>         0.0704
     36 H10         3.2563    8.4297   -5.4837 H         1 <0>         0.0866
     37 H11         5.2081    8.1368   -6.9717 H         1 <0>         0.0758
     38 H12         3.7459    7.4501   -7.7185 H         1 <0>         0.0707
     39 H13         5.8505    5.8678   -6.1739 H         1 <0>         0.0696
     40 H14         5.6937    5.9181   -7.9468 H         1 <0>         0.0865
     41 H15         4.5897    3.9026   -6.9121 H         1 <0>         0.1006
     42 H16         3.4529    4.9339   -7.8184 H         1 <0>         0.0824
     43 H17         1.0611    3.8225   -1.2974 H         1 <0>         0.1332
     44 H18         2.6562    4.5772   -1.0642 H         1 <0>         0.1455
     45 H19         3.1690   -0.1324   -0.9078 H         1 <0>         0.1393
     46 H20         1.4934   -1.9197   -1.2824 H         1 <0>         0.1437
     47 H21        -0.9966   -1.2529   -1.0851 H         1 <0>         0.1931
     48 H22         0.0735    3.4738    0.9920 H         1 <0>         0.1670
     49 H23         5.0822    2.6302    1.5133 H         1 <0>         0.1203
     50 H24         6.1851    3.0953    3.6444 H         1 <0>         0.1277
     51 H25         4.9000    3.9739    5.5468 H         1 <0>         0.1317
     52 H26         2.4929    4.4032    5.3347 H         1 <0>         0.1258
     53 N3          2.5507    3.1907   -2.6490 N.4       1 <0>        -0.5056
     54 H27         3.5643    3.0269   -2.6530 H         1 <0>         0.4376
     55 H28         2.0617    2.3160   -2.8727 H         1 <0>         0.4366
@<TRIPOS>BOND
     1    1    2 1
     2    1   30 1
     3    1   31 1
     4    1   32 1
     5    2    3 1
     6    2    4 1
     7    2   53 1
     8    4    5 2
     9    4    6 am
    10    6   11 1
    11    6    7 1
    12    7    8 1
    13    7   33 1
    14    7   34 1
    15    8    9 1
    16    8   35 1
    17    8   36 1
    18    9   10 1
    19    9   37 1
    20    9   38 1
    21   10   11 1
    22   10   39 1
    23   10   40 1
    24   11   41 1
    25   11   42 1
    26   12   13 1
    27   12   43 1
    28   12   44 1
    29   12   53 1
    30   13   14 1
    31   13   15 1
    32   13   20 1
    33   15   19 1
    34   15   16 2
    35   16   17 1
    36   16   45 1
    37   17   18 2
    38   17   46 1
    39   18   19 1
    40   18   47 1
    41   20   25 1
    42   20   21 2
    43   21   22 1
    44   21   48 1
    45   22   23 1
    46   22   24 1
    47   24   29 ar
    48   24   25 ar
    49   25   26 ar
    50   26   27 ar
    51   26   49 1
    52   27   28 ar
    53   27   50 1
    54   28   29 ar
    55   28   51 1
    56   29   52 1
    57   53   54 1
    58   53   55 1
@<TRIPOS>MOLECULE
ZINC05073769
   62    65     0     0     0
SMALL
USER_CHARGES

@<TRIPOS>ATOM
      1 C1         -0.0187    1.5258    0.0104 C.3       1 <0>        -0.1799
      2 C2          0.0021   -0.0041    0.0020 C.3       1 <0>         0.0817
      3 H1          0.5293   -0.3651    0.8851 H         1 <0>         0.1453
      4 C3          0.7074   -0.4901   -1.2379 C.ar      1 <0>        -0.1478
      5 C4          0.0376   -0.5216   -2.4467 C.ar      1 <0>        -0.1213
      6 C5          0.6846   -0.9674   -3.5840 C.ar      1 <0>        -0.1041
      7 C6          2.0016   -1.3812   -3.5126 C.ar      1 <0>        -0.0903
      8 C7          2.6718   -1.3488   -2.3040 C.ar      1 <0>        -0.1055
      9 C8          2.0261   -0.8990   -1.1675 C.ar      1 <0>        -0.0881
     10 N1         -1.3761   -0.5125    0.0124 N.4       1 <0>        -0.5024
     11 C9         -2.0260   -0.1396    1.2760 C.3       1 <0>        -0.0470
     12 C10        -3.4614   -0.6692    1.2868 C.3       1 <0>         0.0865
     13 H2         -3.9886   -0.3081    0.4038 H         1 <0>         0.1309
     14 C11        -4.1776   -0.1758    2.5456 C.3       1 <0>         0.0334
     15 O1         -5.5497   -0.5722    2.4994 O.3       1 <0>        -0.3752
     16 C12        -6.3127   -0.1589    3.6347 C.3       1 <0>         0.0596
     17 C13        -7.7583   -0.6352    3.4785 C.3       1 <0>        -0.1074
     18 C14        -8.5752   -0.1926    4.6941 C.3       1 <0>        -0.0491
     19 C15        -7.9723   -0.8001    5.9623 C.3       1 <0>        -0.1040
     20 C16        -8.7893   -0.3575    7.1779 C.3       1 <0>        -0.0872
     21 C17       -10.2348   -0.8338    7.0217 C.3       1 <0>        -0.1101
     22 C18       -10.8377   -0.2264    5.7535 C.3       1 <0>        -0.0871
     23 C19       -10.0208   -0.6689    4.5379 C.3       1 <0>        -0.1013
     24 C20       -10.8120    1.2999    5.8570 C.3       1 <0>        -0.1101
     25 C21        -9.3665    1.7762    6.0132 C.3       1 <0>        -0.0872
     26 C22        -8.7636    1.1688    7.2814 C.3       1 <0>        -0.1090
     27 C23        -8.5495    1.3336    4.7976 C.3       1 <0>        -0.1040
     28 O2         -3.4420   -2.0981    1.2790 O.3       1 <0>        -0.5434
     29 H3          1.0039    1.9031    0.0027 H         1 <0>         0.1088
     30 H4         -0.5459    1.8868   -0.8726 H         1 <0>         0.0838
     31 H5         -0.5289    1.8773    0.9072 H         1 <0>         0.0838
     32 H6         -0.9914   -0.1983   -2.5024 H         1 <0>         0.1195
     33 H7          0.1611   -0.9927   -4.5283 H         1 <0>         0.1363
     34 H8          2.5069   -1.7302   -4.4010 H         1 <0>         0.1367
     35 H9          3.7006   -1.6725   -2.2481 H         1 <0>         0.1377
     36 H10         2.5507   -0.8702   -0.2240 H         1 <0>         0.1337
     37 H11        -1.8879   -0.1129   -0.7598 H         1 <0>         0.4258
     38 H12        -1.4732   -0.5714    2.1102 H         1 <0>         0.1398
     39 H13        -2.0386    0.9461    1.3715 H         1 <0>         0.1465
     40 H14        -3.7037   -0.6089    3.4265 H         1 <0>         0.0631
     41 H15        -4.1150    0.9112    2.5968 H         1 <0>         0.0672
     42 H16        -5.8832   -0.5916    4.5382 H         1 <0>         0.0561
     43 H17        -6.2944    0.9285    3.7084 H         1 <0>         0.0559
     44 H18        -8.1878   -0.2025    2.5750 H         1 <0>         0.0725
     45 H19        -7.7766   -1.7225    3.4048 H         1 <0>         0.0733
     46 H20        -7.9906   -1.8874    5.8886 H         1 <0>         0.0636
     47 H21        -6.9425   -0.4607    6.0736 H         1 <0>         0.0592
     48 H22        -8.3597   -0.7902    8.0814 H         1 <0>         0.0701
     49 H23       -10.2531   -1.9212    6.9480 H         1 <0>         0.0623
     50 H24       -10.8168   -0.5185    7.8877 H         1 <0>         0.0637
     51 H25       -11.8676   -0.5657    5.6422 H         1 <0>         0.0721
     52 H26       -10.4503   -0.2362    3.6344 H         1 <0>         0.0637
     53 H27       -10.0391   -1.7563    4.4642 H         1 <0>         0.0639
     54 H28       -11.2415    1.7326    4.9535 H         1 <0>         0.0622
     55 H29       -11.3940    1.6152    6.7230 H         1 <0>         0.0637
     56 H30        -9.3481    2.8635    6.0869 H         1 <0>         0.0700
     57 H31        -9.3456    1.4841    8.1474 H         1 <0>         0.0639
     58 H32        -7.7337    1.5081    7.3927 H         1 <0>         0.0590
     59 H33        -7.5197    1.6730    4.9089 H         1 <0>         0.0592
     60 H34        -8.9790    1.7664    3.8941 H         1 <0>         0.0633
     61 H35        -2.9878   -2.4894    2.0376 H         1 <0>         0.3885
     62 H36        -1.3644   -1.5176   -0.0760 H         1 <0>         0.4353
@<TRIPOS>BOND
     1    1    2 1
     2    1   29 1
     3    1   30 1
     4    1   31 1
     5    2    3 1
     6    2    4 1
     7    2   10 1
     8    4    9 ar
     9    4    5 ar
    10    5    6 ar
    11    5   32 1
    12    6    7 ar
    13    6   33 1
    14    7    8 ar
    15    7   34 1
    16    8    9 ar
    17    8   35 1
    18    9   36 1
    19   10   11 1
    20   10   37 1
    21   10   62 1
    22   11   12 1
    23   11   38 1
    24   11   39 1
    25   12   13 1
    26   12   14 1
    27   12   28 1
    28   14   15 1
    29   14   40 1
    30   14   41 1
    31   15   16 1
    32   16   17 1
    33   16   42 1
    34   16   43 1
    35   17   18 1
    36   17   44 1
    37   17   45 1
    38   18   23 1
    39   18   27 1
    40   18   19 1
    41   19   20 1
    42   19   46 1
    43   19   47 1
    44   20   26 1
    45   20   21 1
    46   20   48 1
    47   21   22 1
    48   21   49 1
    49   21   50 1
    50   22   23 1
    51   22   24 1
    52   22   51 1
    53   23   52 1
    54   23   53 1
    55   24   25 1
    56   24   54 1
    57   24   55 1
    58   25   26 1
    59   25   27 1
    60   25   56 1
    61   26   57 1
    62   26   58 1
    63   27   59 1
    64   27   60 1
    65   28   61 1
@<TRIPOS>MOLECULE
ZINC43288108
   43    44     0     0     0
SMALL
USER_CHARGES

@<TRIPOS>ATOM
      1 C1         -0.0187    1.5258    0.0104 C.3       1 <0>        -0.1495
      2 C2          0.0021   -0.0041    0.0020 C.3       1 <0>        -0.0521
      3 C3          0.7309   -0.5033    1.2229 C.2       1 <0>        -0.2027
      4 C4          2.1038   -0.7537    1.3166 C.2       1 <0>         0.1085
      5 N1          2.3608   -1.1737    2.5288 N.2       1 <0>        -0.2921
      6 N2          1.1578   -1.2038    3.2459 N.pl3     1 <0>        -0.4105
      7 C5          0.1738   -0.7829    2.4239 C.2       1 <0>         0.0747
      8 C6         -1.2849   -0.6512    2.7789 C.3       1 <0>        -0.1042
      9 C7          0.9972   -1.6143    4.6430 C.3       1 <0>         0.2549
     10 H1         -0.0522   -1.5344    4.9268 H         1 <0>         0.1393
     11 C8          1.8265   -0.7197    5.5279 C.2       1 <0>        -0.2141
     12 C9          1.4264    0.0857    6.5421 C.2       1 <0>        -0.0867
     13 C10         2.3744    0.8257    7.2244 C.2       1 <0>        -0.1426
     14 C11         3.6760    0.7236    6.8584 C.2       1 <0>        -0.1184
     15 S1          3.5915   -0.4518    5.5173 S.3       1 <0>         0.1560
     16 Br1         1.8634    1.9634    8.6458 Br        1 <0>        -0.0141
     17 C12         1.4604   -3.0634    4.8053 C.3       1 <0>         0.0186
     18 H2          2.5098   -3.1434    4.5214 H         1 <0>         0.1572
     19 C13         1.2927   -3.4921    6.2644 C.3       1 <0>        -0.1462
     20 C14         1.8705   -4.8962    6.4531 C.3       1 <0>        -0.1715
     21 N3          0.6521   -3.9354    3.9427 N.4       1 <0>        -0.6342
     22 C15         3.1128   -0.5713    0.2122 C.3       1 <0>        -0.0846
     23 H3          1.0039    1.9031    0.0027 H         1 <0>         0.0561
     24 H4         -0.5459    1.8868   -0.8726 H         1 <0>         0.0629
     25 H5         -0.5289    1.8773    0.9072 H         1 <0>         0.0519
     26 H6         -1.0205   -0.3814    0.0098 H         1 <0>         0.0708
     27 H7          0.5123   -0.3556   -0.8948 H         1 <0>         0.0762
     28 H8         -1.7971   -1.5893    2.5647 H         1 <0>         0.0822
     29 H9         -1.3812   -0.4186    3.8394 H         1 <0>         0.0728
     30 H10        -1.7315    0.1494    2.1893 H         1 <0>         0.0984
     31 H11         0.3828    0.1488    6.8130 H         1 <0>         0.1465
     32 H12         4.5402    1.2207    7.2736 H         1 <0>         0.2042
     33 H13         1.8207   -2.7919    6.9118 H         1 <0>         0.1184
     34 H14         0.2336   -3.4973    6.5221 H         1 <0>         0.0957
     35 H15         1.3425   -5.5963    5.8057 H         1 <0>         0.0538
     36 H16         2.9296   -4.8909    6.1954 H         1 <0>         0.0754
     37 H17         1.7510   -5.2016    7.4926 H         1 <0>         0.0893
     38 H18         0.7627   -3.6528    2.9805 H         1 <0>         0.4367
     39 H19         0.9576   -4.8911    4.0497 H         1 <0>         0.4412
     40 H20         3.5122    0.4422    0.2487 H         1 <0>         0.0859
     41 H21         3.9250   -1.2868    0.3403 H         1 <0>         0.0779
     42 H22         2.6308   -0.7374   -0.7513 H         1 <0>         0.0850
     43 H23        -0.3193   -3.8614    4.2054 H         1 <0>         0.4326
@<TRIPOS>BOND
     1    1    2 1
     2    1   23 1
     3    1   24 1
     4    1   25 1
     5    2    3 1
     6    2   26 1
     7    2   27 1
     8    3    7 2
     9    3    4 1
    10    4    5 2
    11    4   22 1
    12    5    6 1
    13    6    7 1
    14    6    9 1
    15    7    8 1
    16    8   28 1
    17    8   29 1
    18    8   30 1
    19    9   10 1
    20    9   11 1
    21    9   17 1
    22   11   15 1
    23   11   12 2
    24   12   13 1
    25   12   31 1
    26   13   14 2
    27   13   16 1
    28   14   15 1
    29   14   32 1
    30   17   18 1
    31   17   19 1
    32   17   21 1
    33   19   20 1
    34   19   33 1
    35   19   34 1
    36   20   35 1
    37   20   36 1
    38   20   37 1
    39   21   38 1
    40   21   39 1
    41   21   43 1
    42   22   40 1
    43   22   41 1
    44   22   42 1
@<TRIPOS>MOLECULE
ZINC61406048
   37    39     0     0     0
SMALL
USER_CHARGES

@<TRIPOS>ATOM
      1 C1         -0.2080    1.5533   -0.2616 C.3       1 <0>        -0.1730
      2 C2         -0.0751    0.0335   -0.1457 C.3       1 <0>        -0.1534
      3 C3          0.7274   -0.5003   -1.3339 C.3       1 <0>         0.0494
      4 H1          0.2646   -0.1687   -2.2634 H         1 <0>         0.1550
      5 C4          0.7462   -2.0296   -1.2908 C.3       1 <0>        -0.0154
      6 H2          1.1886   -2.3612   -0.3514 H         1 <0>         0.1459
      7 C5          1.5627   -2.5546   -2.4435 C.2       1 <0>        -0.2327
      8 C6          2.6768   -3.3258   -2.4187 C.2       1 <0>        -0.0796
      9 C7          3.2658   -3.6920   -3.6147 C.2       1 <0>        -0.1243
     10 C8          2.7107   -3.2683   -4.7774 C.2       1 <0>        -0.1452
     11 S1          1.3086   -2.3283   -4.1961 S.3       1 <0>         0.1318
     12 Br1         3.2719   -3.5947   -6.5534 Br        1 <0>         0.0660
     13 S2         -0.9505   -2.6589   -1.4155 S.3       1 <0>         0.0696
     14 C9         -0.7856   -4.3894   -1.1276 C.2       1 <0>         0.0916
     15 N1          0.3395   -5.0468   -0.9578 N.2       1 <0>        -0.2330
     16 N2          0.1019   -6.2971   -0.7693 N.2       1 <0>        -0.2729
     17 C10        -1.1998   -6.5133   -0.8080 C.2       1 <0>         0.2157
     18 N3         -1.8021   -5.2935   -1.0338 N.pl3     1 <0>        -0.3693
     19 C11        -3.1632   -5.1993   -1.1196 C.2       1 <0>         0.0527
     20 C12        -3.9343   -6.2963   -0.9813 C.2       1 <0>        -0.1152
     21 C13        -3.3488   -7.5545   -0.7472 C.2       1 <0>        -0.0775
     22 C14        -1.9966   -7.6674   -0.6670 C.2       1 <0>        -0.0778
     23 N4          2.1037    0.0085   -1.2635 N.4       1 <0>        -0.6302
     24 H3          0.7837    2.0057   -0.2629 H         1 <0>         0.0552
     25 H4         -0.7226    1.8034   -1.1893 H         1 <0>         0.0755
     26 H5         -0.7797    1.9337    0.5849 H         1 <0>         0.0892
     27 H6          0.4395   -0.2165    0.7821 H         1 <0>         0.0996
     28 H7         -1.0668   -0.4189   -0.1444 H         1 <0>         0.1221
     29 H8          3.0985   -3.6493   -1.4785 H         1 <0>         0.1509
     30 H9          4.1544   -4.3058   -3.6230 H         1 <0>         0.1533
     31 H10        -3.6240   -4.2391   -1.2990 H         1 <0>         0.1719
     32 H11        -5.0086   -6.2091   -1.0504 H         1 <0>         0.1656
     33 H12        -3.9722   -8.4295   -0.6373 H         1 <0>         0.1575
     34 H13        -1.5386   -8.6286   -0.4862 H         1 <0>         0.1656
     35 H14         2.5321   -0.2985   -0.4031 H         1 <0>         0.4368
     36 H15         2.6329   -0.3436   -2.0471 H         1 <0>         0.4371
     37 H16         2.0913    1.0170   -1.2919 H         1 <0>         0.4415
@<TRIPOS>BOND
     1    1    2 1
     2    1   24 1
     3    1   25 1
     4    1   26 1
     5    2    3 1
     6    2   27 1
     7    2   28 1
     8    3    4 1
     9    3    5 1
    10    3   23 1
    11    5    6 1
    12    5    7 1
    13    5   13 1
    14    7   11 1
    15    7    8 2
    16    8    9 1
    17    8   29 1
    18    9   10 2
    19    9   30 1
    20   10   11 1
    21   10   12 1
    22   13   14 1
    23   14   18 1
    24   14   15 2
    25   15   16 1
    26   16   17 2
    27   17   22 1
    28   17   18 1
    29   18   19 1
    30   19   20 2
    31   19   31 1
    32   20   21 1
    33   20   32 1
    34   21   22 2
    35   21   33 1
    36   22   34 1
    37   23   35 1
    38   23   36 1
    39   23   37 1
@<TRIPOS>MOLECULE
ZINC67400615
   58    60     0     0     0
SMALL
USER_CHARGES

@<TRIPOS>ATOM
      1 C1          0.0189    1.3145    0.7779 C.3       1 <0>        -0.1789
      2 C2          0.0021   -0.0041    0.0020 C.3       1 <0>         0.0041
      3 H1          0.2293    0.1884   -1.0465 H         1 <0>         0.1551
      4 C3         -1.3621   -0.6347    0.1128 C.2       1 <0>         0.5033
      5 O1         -1.5909   -1.4337    0.9961 O.2       1 <0>        -0.5197
      6 N1         -2.3279   -0.3108   -0.7697 N.am      1 <0>        -0.6996
      7 C4         -3.6541   -0.9239   -0.6620 C.3       1 <0>         0.1410
      8 C5         -3.6521   -2.2735   -1.3827 C.3       1 <0>        -0.1270
      9 C6         -5.0371   -2.9138   -1.2703 C.3       1 <0>        -0.1193
     10 C7         -6.0778   -1.9942   -1.9125 C.3       1 <0>        -0.1260
     11 C8         -6.0798   -0.6446   -1.1918 C.3       1 <0>        -0.1184
     12 C9         -4.6947   -0.0043   -1.3043 C.3       1 <0>        -0.1278
     13 N2          1.0095   -0.9147    0.5622 N.4       1 <0>        -0.3700
     14 C10         1.0100   -2.1695   -0.1994 C.3       1 <0>        -0.0114
     15 C11         2.0001   -3.1520    0.4298 C.3       1 <0>        -0.1334
     16 C12         3.4033   -2.5388    0.4075 C.3       1 <0>        -0.1298
     17 C13         3.3740   -1.1948    1.1408 C.3       1 <0>        -0.1420
     18 C14         2.3330   -0.2848    0.4853 C.3       1 <0>        -0.0092
     19 C15         4.3848   -3.4817    1.1063 C.3       1 <0>         0.1589
     20 H2          4.0711   -3.6323    2.1393 H         1 <0>         0.1145
     21 C16         5.7650   -2.8770    1.0835 C.ar      1 <0>        -0.1262
     22 C17         6.5390   -2.9647   -0.0586 C.ar      1 <0>        -0.0992
     23 C18         7.8048   -2.4103   -0.0802 C.ar      1 <0>        -0.1035
     24 C19         8.2974   -1.7674    1.0416 C.ar      1 <0>        -0.0290
     25 C20         7.5223   -1.6799    2.1843 C.ar      1 <0>        -0.1053
     26 C21         6.2544   -2.2298    2.2027 C.ar      1 <0>        -0.0982
     27 Cl1         9.8874   -1.0713    1.0155 Cl        1 <0>        -0.0547
     28 O2          4.4041   -4.7385    0.4264 O.3       1 <0>        -0.5438
     29 H3          1.0056    1.7707    0.6977 H         1 <0>         0.0981
     30 H4         -0.7286    1.9902    0.3622 H         1 <0>         0.1107
     31 H5         -0.2084    1.1221    1.8264 H         1 <0>         0.0907
     32 H6         -2.1449    0.3282   -1.4762 H         1 <0>         0.4084
     33 H7         -3.9009   -1.0736    0.3890 H         1 <0>         0.0973
     34 H8         -3.4053   -2.1238   -2.4338 H         1 <0>         0.0676
     35 H9         -2.9108   -2.9286   -0.9252 H         1 <0>         0.0644
     36 H10        -5.0357   -3.8753   -1.7837 H         1 <0>         0.0711
     37 H11        -5.2839   -3.0635   -0.2192 H         1 <0>         0.0671
     38 H12        -5.8309   -1.8445   -2.9636 H         1 <0>         0.0653
     39 H13        -7.0645   -2.4504   -1.8324 H         1 <0>         0.0708
     40 H14        -6.8211    0.0105   -1.6494 H         1 <0>         0.0744
     41 H15        -6.3266   -0.7943   -0.1407 H         1 <0>         0.0680
     42 H16        -4.6962    0.9572   -0.7909 H         1 <0>         0.0721
     43 H17        -4.4479    0.1454   -2.3554 H         1 <0>         0.0723
     44 H18         0.0100   -2.6030   -0.1852 H         1 <0>         0.1327
     45 H19         1.3034   -1.9685   -1.2297 H         1 <0>         0.1273
     46 H20         1.7075   -3.3539    1.4602 H         1 <0>         0.0928
     47 H21         2.0004   -4.0823   -0.1382 H         1 <0>         0.1200
     48 H22         3.7170   -2.3840   -0.6249 H         1 <0>         0.0946
     49 H23         3.1099   -1.3561    2.1860 H         1 <0>         0.0936
     50 H24         4.3563   -0.7261    1.0811 H         1 <0>         0.1185
     51 H25         2.5982   -0.1240   -0.5596 H         1 <0>         0.1311
     52 H26         2.3097    0.6731    1.0049 H         1 <0>         0.1371
     53 H27         6.1545   -3.4669   -0.9341 H         1 <0>         0.1297
     54 H28         8.4096   -2.4792   -0.9723 H         1 <0>         0.1385
     55 H29         7.9063   -1.1785    3.0603 H         1 <0>         0.1389
     56 H30         5.6474   -2.1575    3.0931 H         1 <0>         0.1334
     57 H31         4.6749   -4.6803   -0.5001 H         1 <0>         0.3786
     58 H32         0.7862   -1.1092    1.5268 H         1 <0>         0.4301
@<TRIPOS>BOND
     1    1    2 1
     2    1   29 1
     3    1   30 1
     4    1   31 1
     5    2    3 1
     6    2    4 1
     7    2   13 1
     8    4    5 2
     9    4    6 am
    10    6    7 1
    11    6   32 1
    12    7   12 1
    13    7    8 1
    14    7   33 1
    15    8    9 1
    16    8   34 1
    17    8   35 1
    18    9   10 1
    19    9   36 1
    20    9   37 1
    21   10   11 1
    22   10   38 1
    23   10   39 1
    24   11   12 1
    25   11   40 1
    26   11   41 1
    27   12   42 1
    28   12   43 1
    29   13   18 1
    30   13   14 1
    31   13   58 1
    32   14   15 1
    33   14   44 1
    34   14   45 1
    35   15   16 1
    36   15   46 1
    37   15   47 1
    38   16   17 1
    39   16   19 1
    40   16   48 1
    41   17   18 1
    42   17   49 1
    43   17   50 1
    44   18   51 1
    45   18   52 1
    46   19   20 1
    47   19   21 1
    48   19   28 1
    49   21   26 ar
    50   21   22 ar
    51   22   23 ar
    52   22   53 1
    53   23   24 ar
    54   23   54 1
    55   24   25 ar
    56   24   27 1
    57   25   26 ar
    58   25   55 1
    59   26   56 1
    60   28   57 1
@<TRIPOS>MOLECULE
ZINC12883862
   56    58     0     0     0
SMALL
USER_CHARGES
(2R)-N-[(2S)-2-dimethylamino-2-(4-ethylphenyl)ethyl]-2-methyl-3-oxo-4H-1,4-benzothiazine-6-carboxamide
@<TRIPOS>ATOM
      1 C1          5.7910    3.2552    4.1872 C.3       1 <0>        -0.1505
      2 C2          5.0362    3.8222    2.9832 C.3       1 <0>        -0.0990
      3 C3          3.7140    3.1134    2.8399 C.ar      1 <0>        -0.0363
      4 C4          2.5929    3.6054    3.4818 C.ar      1 <0>        -0.1124
      5 C5          1.3802    2.9550    3.3507 C.ar      1 <0>        -0.0974
      6 C6          1.2886    1.8125    2.5779 C.ar      1 <0>        -0.1571
      7 C7          2.4108    1.3176    1.9403 C.ar      1 <0>        -0.0794
      8 C8          3.6224    1.9710    2.0671 C.ar      1 <0>        -0.1132
      9 C9         -0.0334    1.1032    2.4354 C.3       1 <0>         0.0746
     10 H1          0.1327    0.1014    2.0393 H         1 <0>         0.1500
     11 C10        -0.7095    1.0047    3.8044 C.3       1 <0>         0.0986
     12 N1         -2.0451    0.4232    3.6487 N.am      1 <0>        -0.7507
     13 C11        -2.8303    0.2398    4.7286 C.2       1 <0>         0.5722
     14 O1         -2.4301    0.5571    5.8322 O.2       1 <0>        -0.5036
     15 C12        -4.1749   -0.3456    4.5719 C.ar      1 <0>        -0.1141
     16 C13        -4.6357   -0.7045    3.3017 C.ar      1 <0>        -0.0976
     17 C14        -5.8895   -1.2567    3.1597 C.ar      1 <0>        -0.0629
     18 C15        -6.6964   -1.4470    4.2735 C.ar      1 <0>        -0.1039
     19 C16        -6.2510   -1.0854    5.5497 C.ar      1 <0>         0.1613
     20 C17        -4.9873   -0.5350    5.6919 C.ar      1 <0>        -0.0735
     21 N2         -7.0497   -1.2622    6.6769 N.am      1 <0>        -0.6583
     22 C18        -8.0734   -2.1036    6.7924 C.2       1 <0>         0.5218
     23 O2         -8.6648   -2.1443    7.8507 O.2       1 <0>        -0.4922
     24 C19        -8.5381   -3.0078    5.6838 C.3       1 <0>        -0.0972
     25 H2         -7.9555   -3.9289    5.6952 H         1 <0>         0.1339
     26 S1         -8.3045   -2.1545    4.0952 S.3       1 <0>        -0.0589
     27 C20       -10.0200   -3.3358    5.8767 C.3       1 <0>        -0.1269
     28 C21        -0.4847    1.6521    0.1208 C.3       1 <0>        -0.0454
     29 C22        -0.9094    3.2851    1.8573 C.3       1 <0>        -0.0541
     30 H3          6.7473    3.7678    4.2908 H         1 <0>         0.0680
     31 H4          5.1991    3.4043    5.0902 H         1 <0>         0.0584
     32 H5          5.9644    2.1894    4.0382 H         1 <0>         0.0583
     33 H6          5.6281    3.6731    2.0801 H         1 <0>         0.0810
     34 H7          4.8628    4.8880    3.1321 H         1 <0>         0.0808
     35 H8          2.6646    4.4978    4.0859 H         1 <0>         0.1367
     36 H9          0.5044    3.3392    3.8525 H         1 <0>         0.1314
     37 H10         2.3402    0.4225    1.3400 H         1 <0>         0.1330
     38 H11         4.4984    1.5863    1.5659 H         1 <0>         0.1367
     39 H12        -0.1117    0.3716    4.4601 H         1 <0>         0.1187
     40 H13        -0.7951    2.0003    4.2397 H         1 <0>         0.0989
     41 H14        -2.3643    0.1701    2.7684 H         1 <0>         0.3933
     42 H15        -4.0093   -0.5526    2.4352 H         1 <0>         0.1289
     43 H16        -6.2472   -1.5380    2.1803 H         1 <0>         0.1485
     44 H17        -4.6298   -0.2521    6.6709 H         1 <0>         0.1503
     45 H18        -6.8389   -0.7195    7.4527 H         1 <0>         0.4185
     46 H19       -10.6014   -2.4139    5.8601 H         1 <0>         0.0750
     47 H20       -10.3548   -3.9910    5.0724 H         1 <0>         0.0822
     48 H21       -10.1596   -3.8362    6.8349 H         1 <0>         0.0942
     49 H22        -0.5513    0.5926   -0.1263 H         1 <0>         0.1233
     50 H23         0.5431    1.9913   -0.0080 H         1 <0>         0.1259
     51 H24        -1.1403    2.2209   -0.5386 H         1 <0>         0.1264
     52 H25        -1.6319    3.8030    1.2265 H         1 <0>         0.1258
     53 H26        -1.1884    3.4062    2.9040 H         1 <0>         0.1208
     54 H27         0.0827    3.7064    1.6946 H         1 <0>         0.1320
     55 N3         -0.9234    1.8464    1.5188 N.4       1 <0>        -0.3968
     56 H28        -1.8806    1.4891    1.6207 H         1 <0>         0.4219
@<TRIPOS>BOND
     1    1    2 1
     2    1   30 1
     3    1   31 1
     4    1   32 1
     5    2    3 1
     6    2   33 1
     7    2   34 1
     8    3    8 ar
     9    3    4 ar
    10    4    5 ar
    11    4   35 1
    12    5    6 ar
    13    5   36 1
    14    6    7 ar
    15    6    9 1
    16    7    8 ar
    17    7   37 1
    18    8   38 1
    19    9   10 1
    20    9   11 1
    21    9   55 1
    22   11   12 1
    23   11   39 1
    24   11   40 1
    25   12   13 am
    26   12   41 1
    27   13   14 2
    28   13   15 1
    29   15   20 ar
    30   15   16 ar
    31   16   17 ar
    32   16   42 1
    33   17   18 ar
    34   17   43 1
    35   18   26 1
    36   18   19 ar
    37   19   20 ar
    38   19   21 1
    39   20   44 1
    40   21   22 am
    41   21   45 1
    42   22   23 2
    43   22   24 1
    44   24   25 1
    45   24   26 1
    46   24   27 1
    47   27   46 1
    48   27   47 1
    49   27   48 1
    50   28   49 1
    51   28   50 1
    52   28   51 1
    53   28   55 1
    54   29   52 1
    55   29   53 1
    56   29   54 1
    57   29   55 1
    58   55   56 1
@<TRIPOS>MOLECULE
ZINC35746097
   50    52     0     0     0
SMALL
USER_CHARGES

@<TRIPOS>ATOM
      1 C1         -0.6161   -2.4977   -1.7478 C.3       1 <0>        -0.1697
      2 C2         -1.3303   -2.2931   -0.4103 C.3       1 <0>         0.1108
      3 C3         -0.5263   -2.9644    0.7050 C.3       1 <0>        -0.1810
      4 C4         -1.4520   -0.7957   -0.1210 C.3       1 <0>        -0.0434
      5 N1         -2.0498   -0.1199   -1.2803 N.4       1 <0>        -0.3671
      6 C5         -1.9572    1.3351   -1.1004 C.3       1 <0>         0.0162
      7 C6         -0.5125    1.7586   -1.1671 C.2       1 <0>        -0.2366
      8 C7         -0.1266    2.6317   -2.0642 C.2       1 <0>        -0.0938
      9 C8         -3.4610   -0.5097   -1.4003 C.3       1 <0>         0.0253
     10 C9         -4.0375    0.0734   -2.6647 C.2       1 <0>         0.3669
     11 N2         -5.3392   -0.1584   -2.9734 N.am      1 <0>        -0.6212
     12 H1         -5.8810   -0.6969   -2.3755 H         1 <0>         0.4275
     13 C10        -5.8927    0.3446   -4.0923 C.2       1 <0>         0.5556
     14 O1         -7.0633    0.1281   -4.3548 O.2       1 <0>        -0.4790
     15 C11        -5.0862    1.1382   -4.9691 C.2       1 <0>        -0.2002
     16 C12        -5.4496    1.7857   -6.2237 C.2       1 <0>        -0.0232
     17 C13        -4.5057    2.4947   -6.8884 C.2       1 <0>        -0.1521
     18 S1         -3.0624    2.3302   -5.8555 S.3       1 <0>         0.1945
     19 C14        -3.7529    1.3233   -4.5681 C.2       1 <0>         0.0703
     20 N3         -3.2778    0.7974   -3.4421 N.2       1 <0>        -0.4964
     21 C15        -6.8259    1.6699   -6.7623 C.ar      1 <0>        -0.0839
     22 C16        -7.0539    0.9973   -7.9618 C.ar      1 <0>        -0.0723
     23 C17        -8.3372    0.8922   -8.4583 C.ar      1 <0>        -0.1293
     24 C18        -9.3977    1.4525   -7.7687 C.ar      1 <0>        -0.0770
     25 C19        -9.1798    2.1218   -6.5783 C.ar      1 <0>        -0.1532
     26 C20        -7.8998    2.2290   -6.0674 C.ar      1 <0>         0.1371
     27 F1         -7.6880    2.8781   -4.9016 F         1 <0>        -0.1374
     28 O2         -2.6345   -2.8737   -0.4730 O.3       1 <0>        -0.5505
     29 H2         -0.4331   -3.5610   -1.9031 H         1 <0>         0.0979
     30 H3         -1.2402   -2.1148   -2.5553 H         1 <0>         0.0615
     31 H4          0.3338   -1.9632   -1.7380 H         1 <0>         0.0912
     32 H5          0.4685   -2.5215    0.7529 H         1 <0>         0.0814
     33 H6         -1.0351   -2.8186    1.6579 H         1 <0>         0.0740
     34 H7         -0.4396   -4.0312    0.4989 H         1 <0>         0.0889
     35 H8         -2.0848   -0.6448    0.7536 H         1 <0>         0.1388
     36 H9         -0.4623   -0.3810    0.0708 H         1 <0>         0.1499
     37 H10        -2.5192    1.8352   -1.8892 H         1 <0>         0.1460
     38 H11        -2.3715    1.6083   -0.1300 H         1 <0>         0.1306
     39 H12         0.2047    1.3423   -0.4752 H         1 <0>         0.1319
     40 H13        -0.8438    3.0480   -2.7561 H         1 <0>         0.1116
     41 H14         0.9088    2.9352   -2.1120 H         1 <0>         0.1231
     42 H15        -3.5361   -1.5966   -1.4342 H         1 <0>         0.1956
     43 H16        -4.0161   -0.1338   -0.5408 H         1 <0>         0.1620
     44 H17        -4.6041    3.0308   -7.8208 H         1 <0>         0.2092
     45 H18        -6.2274    0.5595   -8.5019 H         1 <0>         0.1329
     46 H19        -8.5140    0.3715   -9.3877 H         1 <0>         0.1354
     47 H20       -10.3999    1.3672   -8.1619 H         1 <0>         0.1372
     48 H21       -10.0115    2.5577   -6.0448 H         1 <0>         0.1383
     49 H22        -3.1458   -2.7813    0.3425 H         1 <0>         0.3934
     50 H23        -1.5546   -0.3875   -2.1177 H         1 <0>         0.4325
@<TRIPOS>BOND
     1    1    2 1
     2    1   29 1
     3    1   30 1
     4    1   31 1
     5    2    3 1
     6    2    4 1
     7    2   28 1
     8    3   32 1
     9    3   33 1
    10    3   34 1
    11    4    5 1
    12    4   35 1
    13    4   36 1
    14    5    6 1
    15    5    9 1
    16    5   50 1
    17    6    7 1
    18    6   37 1
    19    6   38 1
    20    7    8 2
    21    7   39 1
    22    8   40 1
    23    8   41 1
    24    9   10 1
    25    9   42 1
    26    9   43 1
    27   10   20 2
    28   10   11 1
    29   11   12 1
    30   11   13 am
    31   13   14 2
    32   13   15 1
    33   15   19 2
    34   15   16 1
    35   16   17 2
    36   16   21 1
    37   17   18 1
    38   17   44 1
    39   18   19 1
    40   19   20 1
    41   21   26 ar
    42   21   22 ar
    43   22   23 ar
    44   22   45 1
    45   23   24 ar
    46   23   46 1
    47   24   25 ar
    48   24   47 1
    49   25   26 ar
    50   25   48 1
    51   26   27 1
    52   28   49 1
@<TRIPOS>MOLECULE
ZINC39696267
   70    72     0     0     0
SMALL
USER_CHARGES

@<TRIPOS>ATOM
      1 C1         -2.7039   -7.1415   -3.4968 C.3       1 <0>        -0.1480
      2 C2         -3.4684   -7.6202   -2.2609 C.3       1 <0>        -0.0916
      3 C3         -4.2353   -6.4669   -1.6669 C.ar      1 <0>        -0.0700
      4 C4         -3.6436   -5.6627   -0.7108 C.ar      1 <0>        -0.1093
      5 C5         -4.3471   -4.6049   -0.1659 C.ar      1 <0>        -0.1004
      6 C6         -5.6421   -4.3509   -0.5773 C.ar      1 <0>        -0.1074
      7 C7         -6.2335   -5.1546   -1.5340 C.ar      1 <0>        -0.1138
      8 C8         -5.5286   -6.2098   -2.0821 C.ar      1 <0>        -0.1142
      9 C9         -6.4094   -3.1983    0.0175 C.3       1 <0>         0.1846
     10 H1         -5.7118   -2.4872    0.4600 H         1 <0>         0.1005
     11 C10        -7.3587   -3.7208    1.0976 C.3       1 <0>        -0.1575
     12 N1         -7.1839   -2.5332   -1.0332 N.am      1 <0>        -0.7212
     13 C11        -7.5329   -1.2386   -0.8961 C.2       1 <0>         0.5212
     14 O1         -7.2058   -0.6243    0.0972 O.2       1 <0>        -0.5193
     15 C12        -8.3296   -0.5545   -1.9769 C.3       1 <0>        -0.1144
     16 H2         -8.1151   -1.0028   -2.9470 H         1 <0>         0.1111
     17 C13        -8.0146    0.9580   -2.0017 C.3       1 <0>         0.1104
     18 N2         -9.3123    1.6057   -2.3061 N.am      1 <0>        -0.6266
     19 C14       -10.3057    0.8218   -1.5337 C.3       1 <0>         0.1077
     20 C15        -9.8339   -0.6396   -1.6686 C.3       1 <0>        -0.0716
     21 C16       -10.0636   -1.3904   -0.3604 C.3       1 <0>        -0.1486
     22 C17       -11.5684   -1.5133   -0.1050 C.3       1 <0>        -0.0078
     23 N3        -12.1992   -2.2290   -1.2206 N.4       1 <0>        -0.5044
     24 C18       -12.0540   -1.4540   -2.4587 C.3       1 <0>        -0.0110
     25 C19       -10.5697   -1.3287   -2.8137 C.3       1 <0>        -0.1335
     26 C20        -9.5383    2.6673   -3.1051 C.2       1 <0>         0.5408
     27 O2        -10.6673    3.0845   -3.2543 O.2       1 <0>        -0.5242
     28 C21        -8.3883    3.3361   -3.8130 C.3       1 <0>        -0.1351
     29 C22        -8.9140    4.5048   -4.6487 C.3       1 <0>        -0.0761
     30 H3         -9.6916    4.1478   -5.3240 H         1 <0>         0.0779
     31 C23        -9.4953    5.5740   -3.7214 C.3       1 <0>        -0.1566
     32 C24        -7.7670    5.1056   -5.4639 C.3       1 <0>        -0.1207
     33 C25        -8.3150    6.1916   -6.3918 C.3       1 <0>        -0.1558
     34 H4         -2.1492   -7.9757   -3.9265 H         1 <0>         0.0625
     35 H5         -3.4088   -6.7561   -4.2334 H         1 <0>         0.0548
     36 H6         -2.0090   -6.3519   -3.2110 H         1 <0>         0.0567
     37 H7         -4.1633   -8.4098   -2.5468 H         1 <0>         0.0741
     38 H8         -2.7635   -8.0056   -1.5243 H         1 <0>         0.0757
     39 H9         -2.6318   -5.8611   -0.3894 H         1 <0>         0.1274
     40 H10        -3.8850   -3.9770    0.5816 H         1 <0>         0.1262
     41 H11        -7.2454   -4.9564   -1.8552 H         1 <0>         0.1136
     42 H12        -5.9893   -6.8354   -2.8322 H         1 <0>         0.1237
     43 H13        -6.7825   -4.2157    1.8794 H         1 <0>         0.0744
     44 H14        -7.9137   -2.8871    1.5278 H         1 <0>         0.0627
     45 H15        -8.0563   -4.4319    0.6551 H         1 <0>         0.0564
     46 H16        -7.4455   -3.0245   -1.8276 H         1 <0>         0.3992
     47 H17        -7.6453    1.2853   -1.0299 H         1 <0>         0.1007
     48 H18        -7.2862    1.1817   -2.7811 H         1 <0>         0.0938
     49 H19       -10.3024    1.1287   -0.4878 H         1 <0>         0.0833
     50 H20       -11.3007    0.9405   -1.9628 H         1 <0>         0.0882
     51 H21        -9.6239   -2.3854   -0.4299 H         1 <0>         0.0973
     52 H22        -9.5988   -0.8431    0.4596 H         1 <0>         0.1266
     53 H23       -11.7358   -2.0639    0.8207 H         1 <0>         0.1392
     54 H24       -12.0046   -0.5181   -0.0192 H         1 <0>         0.1336
     55 H25       -11.7566   -3.1286   -1.3346 H         1 <0>         0.4272
     56 H26       -12.5794   -1.9609   -3.2681 H         1 <0>         0.1397
     57 H27       -12.4786   -0.4601   -2.3168 H         1 <0>         0.1343
     58 H28       -10.4618   -0.7379   -3.7233 H         1 <0>         0.1179
     59 H29       -10.1484   -2.3214   -2.9719 H         1 <0>         0.0954
     60 H30        -7.6751    3.7075   -3.0771 H         1 <0>         0.0974
     61 H31        -7.8950    2.6157   -4.4656 H         1 <0>         0.0947
     62 H32        -9.8698    6.4067   -4.3168 H         1 <0>         0.0598
     63 H33       -10.3124    5.1461   -3.1407 H         1 <0>         0.0691
     64 H34        -8.7177    5.9310   -3.0462 H         1 <0>         0.0495
     65 H35        -7.0311    5.5420   -4.7886 H         1 <0>         0.0640
     66 H36        -7.2955    4.3234   -6.0588 H         1 <0>         0.0615
     67 H37        -7.4979    6.6196   -6.9725 H         1 <0>         0.0566
     68 H38        -9.0510    5.7552   -7.0671 H         1 <0>         0.0543
     69 H39        -8.7866    6.9738   -5.7969 H         1 <0>         0.0588
     70 H40       -13.1794   -2.3622   -1.0217 H         1 <0>         0.4344
@<TRIPOS>BOND
     1    1    2 1
     2    1   34 1
     3    1   35 1
     4    1   36 1
     5    2    3 1
     6    2   37 1
     7    2   38 1
     8    3    8 ar
     9    3    4 ar
    10    4    5 ar
    11    4   39 1
    12    5    6 ar
    13    5   40 1
    14    6    7 ar
    15    6    9 1
    16    7    8 ar
    17    7   41 1
    18    8   42 1
    19    9   10 1
    20    9   11 1
    21    9   12 1
    22   11   43 1
    23   11   44 1
    24   11   45 1
    25   12   13 am
    26   12   46 1
    27   13   14 2
    28   13   15 1
    29   15   16 1
    30   15   20 1
    31   15   17 1
    32   17   18 1
    33   17   47 1
    34   17   48 1
    35   18   19 1
    36   18   26 am
    37   19   20 1
    38   19   49 1
    39   19   50 1
    40   20   25 1
    41   20   21 1
    42   21   22 1
    43   21   51 1
    44   21   52 1
    45   22   23 1
    46   22   53 1
    47   22   54 1
    48   23   24 1
    49   23   55 1
    50   23   70 1
    51   24   25 1
    52   24   56 1
    53   24   57 1
    54   25   58 1
    55   25   59 1
    56   26   27 2
    57   26   28 1
    58   28   29 1
    59   28   60 1
    60   28   61 1
    61   29   30 1
    62   29   31 1
    63   29   32 1
    64   31   62 1
    65   31   63 1
    66   31   64 1
    67   32   33 1
    68   32   65 1
    69   32   66 1
    70   33   67 1
    71   33   68 1
    72   33   69 1
@<TRIPOS>MOLECULE
ZINC63328748
   46    49     0     0     0
SMALL
USER_CHARGES

@<TRIPOS>ATOM
      1 C1         -0.0187    1.5258    0.0104 C.3       1 <0>        -0.1692
      2 C2          0.0021   -0.0041    0.0020 C.3       1 <0>         0.1501
      3 H1         -1.0205   -0.3814    0.0098 H         1 <0>         0.1031
      4 C3          0.7182   -0.4975   -1.2568 C.3       1 <0>        -0.1020
      5 C4          0.6316   -2.0003   -1.3275 C.2       1 <0>         0.0686
      6 C5         -0.2829   -2.7312   -2.0050 C.ar      1 <0>        -0.1697
      7 C6         -1.4275   -2.3600   -2.8455 C.ar      1 <0>        -0.0102
      8 C7         -2.1773   -3.3384   -3.4020 C.ar      1 <0>        -0.1521
      9 C8         -1.8896   -4.6947   -3.1963 C.ar      1 <0>         0.0557
     10 C9         -0.8552   -5.1137   -2.4370 C.ar      1 <0>        -0.2109
     11 C10         0.0000   -4.1703   -1.8037 C.ar      1 <0>         0.3283
     12 N1          1.0486   -4.3232   -1.0319 N.pl3     1 <0>        -0.5865
     13 C11         1.5537   -2.9966   -0.6607 C.3       1 <0>         0.0576
     14 N2          0.7106   -0.4894    1.1889 N.am      1 <0>        -0.7374
     15 C12         0.0512   -0.6335    2.3554 C.2       1 <0>         0.5675
     16 O1         -1.1317   -0.3607    2.4228 O.2       1 <0>        -0.5160
     17 C13         0.7651   -1.1224    3.5513 C.ar      1 <0>        -0.1208
     18 C14         2.1302   -1.4310    3.4736 C.ar      1 <0>        -0.1056
     19 C15         2.8006   -1.8830    4.5695 C.ar      1 <0>        -0.0485
     20 C16         2.1280   -2.0429    5.7870 C.ar      1 <0>         0.0714
     21 C17         0.7576   -1.7346    5.8724 C.ar      1 <0>         0.0588
     22 C18         0.0819   -1.2709    4.7570 C.ar      1 <0>        -0.0311
     23 N3          0.3903   -1.9919    7.1795 N.pl3     1 <0>        -0.5613
     24 H2         -0.4944   -1.8796    7.5610 H         1 <0>         0.4384
     25 C19         1.4985   -2.4319    7.8306 C.2       1 <0>         0.2096
     26 N4          2.5147   -2.4619    7.0168 N.2       1 <0>        -0.4270
     27 C20         1.5452   -2.8275    9.2840 C.3       1 <0>         0.5591
     28 F1          2.8773   -2.8982    9.7055 F         1 <0>        -0.1401
     29 F2          0.8641   -1.8743   10.0488 F         1 <0>        -0.1601
     30 F3          0.9375   -4.0770    9.4470 F         1 <0>        -0.1570
     31 H3          1.0039    1.9031    0.0027 H         1 <0>         0.0684
     32 H4         -0.5459    1.8868   -0.8726 H         1 <0>         0.0769
     33 H5         -0.5289    1.8773    0.9072 H         1 <0>         0.0758
     34 H6          0.2444   -0.0644   -2.1377 H         1 <0>         0.1289
     35 H7          1.7648   -0.1951   -1.2215 H         1 <0>         0.1196
     36 H8         -1.6675   -1.3210   -3.0168 H         1 <0>         0.1618
     37 H9         -3.0199   -3.0675   -4.0209 H         1 <0>         0.1584
     38 H10        -2.5218   -5.4349   -3.6642 H         1 <0>         0.1610
     39 H11        -0.6763   -6.1711   -2.3096 H         1 <0>         0.1603
     40 H12         2.5734   -2.8656   -1.0229 H         1 <0>         0.1755
     41 H13         1.5201   -2.8735    0.4218 H         1 <0>         0.1662
     42 H14         1.6544   -0.7070    1.1351 H         1 <0>         0.3994
     43 H15         2.6544   -1.3097    2.5372 H         1 <0>         0.1343
     44 H16         3.8522   -2.1187    4.4992 H         1 <0>         0.1473
     45 H17        -0.9690   -1.0297    4.8194 H         1 <0>         0.1476
     46 H18         1.4293   -5.1715   -0.7556 H         1 <0>         0.4557
@<TRIPOS>BOND
     1    1    2 1
     2    1   31 1
     3    1   32 1
     4    1   33 1
     5    2    3 1
     6    2    4 1
     7    2   14 1
     8    4    5 1
     9    4   34 1
    10    4   35 1
    11    5   13 1
    12    5    6 2
    13    6   11 ar
    14    6    7 ar
    15    7    8 ar
    16    7   36 1
    17    8    9 ar
    18    8   37 1
    19    9   10 ar
    20    9   38 1
    21   10   11 ar
    22   10   39 1
    23   11   12 2
    24   12   13 1
    25   12   46 1
    26   13   40 1
    27   13   41 1
    28   14   15 am
    29   14   42 1
    30   15   16 2
    31   15   17 1
    32   17   22 ar
    33   17   18 ar
    34   18   19 ar
    35   18   43 1
    36   19   20 ar
    37   19   44 1
    38   20   26 1
    39   20   21 ar
    40   21   22 ar
    41   21   23 1
    42   22   45 1
    43   23   24 1
    44   23   25 1
    45   25   26 2
    46   25   27 1
    47   27   28 1
    48   27   29 1
    49   27   30 1
@<TRIPOS>MOLECULE
ZINC67248053
   52    54     0     0     0
SMALL
USER_CHARGES

@<TRIPOS>ATOM
      1 C1         -0.0187    1.5258    0.0104 C.3       1 <0>        -0.1812
      2 C2          0.0021   -0.0041    0.0020 C.3       1 <0>         0.0733
      3 H1         -1.0205   -0.3814    0.0098 H         1 <0>         0.1525
      4 C3          0.7074   -0.4901   -1.2379 C.ar      1 <0>        -0.0892
      5 C4          2.0889   -0.5108   -1.2839 C.ar      1 <0>        -0.1433
      6 C5          2.7359   -0.9566   -2.4212 C.ar      1 <0>        -0.0034
      7 C6          2.0015   -1.3821   -3.5123 C.ar      1 <0>        -0.6564
      8 C7          0.6201   -1.3622   -3.4659 C.ar      1 <0>        -0.0076
      9 C8         -0.0269   -0.9205   -2.3270 C.ar      1 <0>        -0.1079
     10 S1          2.8263   -1.9492   -4.9624 S.o2      1 <0>         2.6901
     11 O1          1.9163   -1.7781   -6.0404 O.2       1 <0>        -0.9415
     12 O2          4.1173   -1.3557   -4.9538 O.2       1 <0>        -0.9466
     13 N1          3.0541   -3.5804   -4.7898 N.pl3     1 <0>        -1.1166
     14 C9          1.8989   -4.4797   -4.7359 C.3       1 <0>         0.0798
     15 N2          0.7126   -0.4907    1.1921 N.4       1 <0>        -0.5087
     16 C10        -0.0398   -0.1189    2.3978 C.3       1 <0>         0.0433
     17 C11         0.6890   -0.6181    3.6187 C.ar      1 <0>        -0.1775
     18 C12         0.4115   -1.8923    4.1105 C.ar      1 <0>        -0.1038
     19 C13         1.0519   -2.3732    5.2108 C.ar      1 <0>        -0.0944
     20 C14         2.0084   -1.5758    5.8631 C.ar      1 <0>         0.0083
     21 C15         2.6893   -2.0392    7.0007 C.ar      1 <0>        -0.1648
     22 C16         3.6126   -1.2369    7.6083 C.ar      1 <0>         0.1572
     23 C17         3.8892    0.0413    7.1128 C.ar      1 <0>        -0.1808
     24 C18         3.2467    0.5190    6.0137 C.ar      1 <0>        -0.0605
     25 C19         2.2908   -0.2802    5.3625 C.ar      1 <0>        -0.0951
     26 C20         1.6124    0.1800    4.2210 C.ar      1 <0>        -0.0457
     27 O3          4.2707   -1.6864    8.7089 O.3       1 <0>        -0.3099
     28 C21         5.2247   -0.8021    9.3005 C.3       1 <0>         0.0212
     29 H2          1.0039    1.9031    0.0027 H         1 <0>         0.0849
     30 H3         -0.5459    1.8868   -0.8726 H         1 <0>         0.1099
     31 H4         -0.5289    1.8773    0.9072 H         1 <0>         0.0902
     32 H5          2.6626   -0.1783   -0.4315 H         1 <0>         0.1310
     33 H6          3.8152   -0.9721   -2.4575 H         1 <0>         0.1534
     34 H7          0.0463   -1.6944   -4.3185 H         1 <0>         0.1555
     35 H8         -1.1062   -0.9085   -2.2894 H         1 <0>         0.1467
     36 H9          3.9525   -3.9404   -4.7244 H         1 <0>         0.4242
     37 H10         1.2683   -4.2108   -3.8884 H         1 <0>         0.0566
     38 H11         1.3253   -4.3901   -5.6584 H         1 <0>         0.0742
     39 H12         2.2435   -5.5074   -4.6207 H         1 <0>         0.0898
     40 H13         0.7982   -1.4950    1.1455 H         1 <0>         0.4302
     41 H14        -0.1324    0.9660    2.4481 H         1 <0>         0.1397
     42 H15        -1.0328   -0.5668    2.3589 H         1 <0>         0.1405
     43 H16        -0.3229   -2.5069    3.6113 H         1 <0>         0.1305
     44 H17         0.8261   -3.3623    5.5812 H         1 <0>         0.1395
     45 H18         2.4838   -3.0242    7.3930 H         1 <0>         0.1435
     46 H19         4.6231    0.6578    7.6104 H         1 <0>         0.1404
     47 H20         3.4698    1.5084    5.6425 H         1 <0>         0.1385
     48 H21         1.8199    1.1635    3.8261 H         1 <0>         0.1347
     49 H22         6.0001   -0.5643    8.5723 H         1 <0>         0.0608
     50 H23         4.7253    0.1153    9.6122 H         1 <0>         0.0612
     51 H24         5.6763   -1.2827   10.1683 H         1 <0>         0.1096
     52 H25         1.6317   -0.0761    1.2281 H         1 <0>         0.4238
@<TRIPOS>BOND
     1    1    2 1
     2    1   29 1
     3    1   30 1
     4    1   31 1
     5    2    3 1
     6    2    4 1
     7    2   15 1
     8    4    9 ar
     9    4    5 ar
    10    5    6 ar
    11    5   32 1
    12    6    7 ar
    13    6   33 1
    14    7    8 ar
    15    7   10 1
    16    8    9 ar
    17    8   34 1
    18    9   35 1
    19   10   11 2
    20   10   12 2
    21   10   13 1
    22   13   14 1
    23   13   36 1
    24   14   37 1
    25   14   38 1
    26   14   39 1
    27   15   16 1
    28   15   40 1
    29   15   52 1
    30   16   17 1
    31   16   41 1
    32   16   42 1
    33   17   26 ar
    34   17   18 ar
    35   18   19 ar
    36   18   43 1
    37   19   20 ar
    38   19   44 1
    39   20   25 ar
    40   20   21 ar
    41   21   22 ar
    42   21   45 1
    43   22   23 ar
    44   22   27 1
    45   23   24 ar
    46   23   46 1
    47   24   25 ar
    48   24   47 1
    49   25   26 ar
    50   26   48 1
    51   27   28 1
    52   28   49 1
    53   28   50 1
    54   28   51 1
@<TRIPOS>MOLECULE
ZINC08144679
   50    53     0     0     0
SMALL
USER_CHARGES
N'-(2,2-diphenylacetyl)-1-methyl-indole-3-carbohydrazide
@<TRIPOS>ATOM
      1 C1         -2.1867   10.5885   -6.9946 C.3       1 <0>         0.0698
      2 N1         -1.6368   10.7677   -5.6486 N.pl3     1 <0>        -0.4679
      3 C2         -1.4124    9.7652   -4.7656 C.2       1 <0>         0.1159
      4 C3         -0.8967   10.2745   -3.6105 C.2       1 <0>        -0.2273
      5 C4         -0.8006   11.7331   -3.8032 C.ar      1 <0>        -0.0578
      6 C5         -1.2742   11.9813   -5.1017 C.ar      1 <0>         0.0852
      7 C6         -1.3024   13.2872   -5.5793 C.ar      1 <0>        -0.1241
      8 C7         -0.8630   14.3210   -4.7810 C.ar      1 <0>        -0.0971
      9 C8         -0.3904   14.0735   -3.5006 C.ar      1 <0>        -0.1367
     10 C9         -0.3544   12.7865   -3.0094 C.ar      1 <0>        -0.0655
     11 C10        -0.5176    9.5194   -2.4086 C.2       1 <0>         0.5963
     12 O1         -0.0669   10.1027   -1.4407 O.2       1 <0>        -0.5372
     13 N2         -0.6692    8.1806   -2.3782 N.am      1 <0>        -0.5256
     14 N3         -0.3077    7.4605   -1.2321 N.am      1 <0>        -0.5142
     15 C11        -0.4593    6.1216   -1.2017 C.2       1 <0>         0.5239
     16 O2         -0.9087    5.5402   -2.1666 O.2       1 <0>        -0.5265
     17 C12        -0.0705    5.3471    0.0311 C.3       1 <0>        -0.0118
     18 C13        -0.3371    3.8807   -0.1920 C.ar      1 <0>        -0.0707
     19 C14         0.6682    2.9556    0.0187 C.ar      1 <0>        -0.1065
     20 C15         0.4236    1.6104   -0.1856 C.ar      1 <0>        -0.1230
     21 C16        -0.8262    1.1905   -0.6010 C.ar      1 <0>        -0.1138
     22 C17        -1.8299    2.1162   -0.8172 C.ar      1 <0>        -0.1229
     23 C18        -1.5867    3.4608   -0.6078 C.ar      1 <0>        -0.0784
     24 C19        -0.8810    5.8320    1.2054 C.ar      1 <0>        -0.0873
     25 C20        -2.2538    5.9513    1.0956 C.ar      1 <0>        -0.1068
     26 C21        -2.9978    6.3915    2.1743 C.ar      1 <0>        -0.1145
     27 C22        -2.3679    6.7219    3.3597 C.ar      1 <0>        -0.1124
     28 C23        -0.9945    6.6079    3.4677 C.ar      1 <0>        -0.1150
     29 C24        -0.2511    6.1627    2.3906 C.ar      1 <0>        -0.1052
     30 H1         -3.2737   10.6601   -6.9556 H         1 <0>         0.0776
     31 H2         -1.7950   11.3636   -7.6533 H         1 <0>         0.0875
     32 H3         -1.9006    9.6085   -7.3765 H         1 <0>         0.0894
     33 H4         -1.6121    8.7197   -4.9488 H         1 <0>         0.1778
     34 H5         -1.6688   13.4910   -6.5746 H         1 <0>         0.1221
     35 H6         -0.8870   15.3336   -5.1557 H         1 <0>         0.1289
     36 H7         -0.0494   14.8932   -2.8857 H         1 <0>         0.1274
     37 H8          0.0140   12.5963   -2.0122 H         1 <0>         0.1340
     38 H9         -1.0286    7.7155   -3.1499 H         1 <0>         0.4278
     39 H10         0.0516    7.9255   -0.4604 H         1 <0>         0.4338
     40 H11         0.9898    5.4967    0.2349 H         1 <0>         0.1183
     41 H12         1.6447    3.2836    0.3432 H         1 <0>         0.1226
     42 H13         1.2090    0.8877   -0.0210 H         1 <0>         0.1235
     43 H14        -1.0173    0.1397   -0.7608 H         1 <0>         0.1218
     44 H15        -2.8050    1.7885   -1.1460 H         1 <0>         0.1220
     45 H16        -2.3720    4.1837   -0.7728 H         1 <0>         0.1202
     46 H17        -2.7455    5.6971    0.1682 H         1 <0>         0.1205
     47 H18        -4.0708    6.4809    2.0898 H         1 <0>         0.1242
     48 H19        -2.9488    7.0693    4.2013 H         1 <0>         0.1244
     49 H20        -0.5023    6.8663    4.3936 H         1 <0>         0.1265
     50 H21         0.8219    6.0737    2.4750 H         1 <0>         0.1269
@<TRIPOS>BOND
     1    1    2 1
     2    1   30 1
     3    1   31 1
     4    1   32 1
     5    2    6 1
     6    2    3 1
     7    3    4 2
     8    3   33 1
     9    4    5 1
    10    4   11 1
    11    5   10 ar
    12    5    6 ar
    13    6    7 ar
    14    7    8 ar
    15    7   34 1
    16    8    9 ar
    17    8   35 1
    18    9   10 ar
    19    9   36 1
    20   10   37 1
    21   11   12 2
    22   11   13 am
    23   13   14 1
    24   13   38 1
    25   14   15 am
    26   14   39 1
    27   15   16 2
    28   15   17 1
    29   17   18 1
    30   17   24 1
    31   17   40 1
    32   18   23 ar
    33   18   19 ar
    34   19   20 ar
    35   19   41 1
    36   20   21 ar
    37   20   42 1
    38   21   22 ar
    39   21   43 1
    40   22   23 ar
    41   22   44 1
    42   23   45 1
    43   24   29 ar
    44   24   25 ar
    45   25   26 ar
    46   25   46 1
    47   26   27 ar
    48   26   47 1
    49   27   28 ar
    50   27   48 1
    51   28   29 ar
    52   28   49 1
    53   29   50 1
@<TRIPOS>MOLECULE
ZINC21933508
   51    53     0     0     0
SMALL
USER_CHARGES

@<TRIPOS>ATOM
      1 C1          0.7498    2.0707    0.0672 C.3       1 <0>        -0.1655
      2 C2          0.1336    0.7372   -0.3603 C.3       1 <0>         0.2271
      3 H1          0.1800    0.0326    0.4701 H         1 <0>         0.1213
      4 C3         -1.3044    0.9524   -0.7567 C.2       1 <0>         0.0181
      5 C4         -2.3621    0.6965    0.0251 C.2       1 <0>        -0.1834
      6 C5         -3.5486    1.0524   -0.7624 C.ar      1 <0>        -0.1318
      7 C6         -4.9219    1.0201   -0.5249 C.ar      1 <0>        -0.0688
      8 C7         -5.7880    1.4335   -1.4988 C.ar      1 <0>        -0.1341
      9 C8         -5.3085    1.8839   -2.7204 C.ar      1 <0>        -0.0897
     10 C9         -3.9540    1.9230   -2.9732 C.ar      1 <0>        -0.1073
     11 C10        -3.0567    1.5078   -1.9970 C.ar      1 <0>         0.0563
     12 O1         -1.7116    1.4344   -1.9439 O.3       1 <0>        -0.1903
     13 N1          0.8789    0.1980   -1.5005 N.am      1 <0>        -0.7202
     14 C11         1.9933   -0.5312   -1.2930 C.2       1 <0>         0.5211
     15 O2          2.4268   -0.6697   -0.1688 O.2       1 <0>        -0.5297
     16 C12         2.7006   -1.1743   -2.4580 C.3       1 <0>         0.1355
     17 H2          2.5822   -0.5508   -3.3441 H         1 <0>         0.1123
     18 C13         2.0971   -2.5553   -2.7217 C.3       1 <0>        -0.0980
     19 C14         0.6218   -2.4038   -3.0974 C.3       1 <0>        -0.1545
     20 C15         2.8494   -3.2296   -3.8708 C.3       1 <0>        -0.1390
     21 N2          4.1253   -1.3153   -2.1468 N.am      1 <0>        -0.7118
     22 C16         5.0299   -1.3775   -3.1440 C.2       1 <0>         0.5668
     23 O3          4.6636   -1.3167   -4.3016 O.2       1 <0>        -0.5249
     24 C17         6.4664   -1.5197   -2.8302 C.ar      1 <0>        -0.1501
     25 C18         6.8893   -1.5955   -1.5015 C.ar      1 <0>        -0.0548
     26 C19         8.2309   -1.7281   -1.2143 C.ar      1 <0>        -0.1606
     27 C20         9.1600   -1.7856   -2.2420 C.ar      1 <0>         0.1287
     28 C21         8.7455   -1.7108   -3.5630 C.ar      1 <0>        -0.1617
     29 C22         7.4058   -1.5844   -3.8615 C.ar      1 <0>        -0.0272
     30 F1         10.4738   -1.9147   -1.9550 F         1 <0>        -0.1319
     31 H3          1.7899    1.9150    0.3539 H         1 <0>         0.0764
     32 H4          0.7034    2.7753   -0.7632 H         1 <0>         0.0653
     33 H5          0.1952    2.4719    0.9155 H         1 <0>         0.0753
     34 H6         -2.3451    0.3068    1.0322 H         1 <0>         0.1613
     35 H7         -5.3001    0.6696    0.4240 H         1 <0>         0.1289
     36 H8         -6.8522    1.4090   -1.3162 H         1 <0>         0.1314
     37 H9         -6.0037    2.2070   -3.4812 H         1 <0>         0.1371
     38 H10        -3.5912    2.2751   -3.9276 H         1 <0>         0.1334
     39 H11         0.5704    0.3658   -2.4047 H         1 <0>         0.4100
     40 H12         2.1824   -3.1667   -1.8234 H         1 <0>         0.0795
     41 H13         0.5286   -1.7069   -3.9303 H         1 <0>         0.0611
     42 H14         0.2196   -3.3741   -3.3889 H         1 <0>         0.0675
     43 H15         0.0660   -2.0226   -2.2408 H         1 <0>         0.0575
     44 H16         3.9005   -3.3375   -3.6031 H         1 <0>         0.0542
     45 H17         2.4195   -4.2134   -4.0587 H         1 <0>         0.0546
     46 H18         2.7642   -2.6182   -4.7691 H         1 <0>         0.0689
     47 H19         4.4175   -1.3638   -1.2232 H         1 <0>         0.4098
     48 H20         6.1665   -1.5501   -0.7003 H         1 <0>         0.1379
     49 H21         8.5590   -1.7868   -0.1871 H         1 <0>         0.1444
     50 H22         9.4734   -1.7558   -4.3596 H         1 <0>         0.1452
     51 H23         7.0836   -1.5310   -4.8909 H         1 <0>         0.1486
@<TRIPOS>BOND
     1    1    2 1
     2    1   31 1
     3    1   32 1
     4    1   33 1
     5    2    3 1
     6    2    4 1
     7    2   13 1
     8    4   12 1
     9    4    5 2
    10    5    6 1
    11    5   34 1
    12    6   11 ar
    13    6    7 ar
    14    7    8 ar
    15    7   35 1
    16    8    9 ar
    17    8   36 1
    18    9   10 ar
    19    9   37 1
    20   10   11 ar
    21   10   38 1
    22   11   12 1
    23   13   14 am
    24   13   39 1
    25   14   15 2
    26   14   16 1
    27   16   17 1
    28   16   18 1
    29   16   21 1
    30   18   19 1
    31   18   20 1
    32   18   40 1
    33   19   41 1
    34   19   42 1
    35   19   43 1
    36   20   44 1
    37   20   45 1
    38   20   46 1
    39   21   22 am
    40   21   47 1
    41   22   23 2
    42   22   24 1
    43   24   29 ar
    44   24   25 ar
    45   25   26 ar
    46   25   48 1
    47   26   27 ar
    48   26   49 1
    49   27   28 ar
    50   27   30 1
    51   28   29 ar
    52   28   50 1
    53   29   51 1
@<TRIPOS>MOLECULE
ZINC49273578
   43    44     0     0     0
SMALL
USER_CHARGES

@<TRIPOS>ATOM
      1 C1         -0.0662    1.4906    0.0131 C.3       1 <0>        -0.1132
      2 C2         -0.0411   -0.0162    0.0100 C.ar      1 <0>        -0.1144
      3 C3         -0.0383   -0.7040   -1.1896 C.ar      1 <0>        -0.0769
      4 C4         -0.0158   -2.0851   -1.1952 C.ar      1 <0>        -0.1980
      5 C5          0.0044   -2.7822    0.0043 C.ar      1 <0>         0.1351
      6 C6          0.0019   -2.0899    1.2063 C.ar      1 <0>        -0.1247
      7 C7         -0.0154   -0.7083    1.2064 C.ar      1 <0>        -0.0792
      8 C8          0.0237   -2.8439    2.5109 C.3       1 <0>         0.1916
      9 H1          0.6197   -3.7495    2.3973 H         1 <0>         0.1111
     10 C9         -1.4055   -3.2203    2.9064 C.3       1 <0>        -0.1564
     11 N1          0.6125   -1.9995    3.5533 N.am      1 <0>        -0.6918
     12 C10         1.2832   -2.5625    4.5777 C.2       1 <0>         0.5138
     13 O1          1.3995   -3.7691    4.6368 O.2       1 <0>        -0.5070
     14 C11         1.8835   -1.7016    5.6403 C.2       1 <0>         0.5115
     15 O2          1.7672   -0.4949    5.5813 O.2       1 <0>        -0.4895
     16 N2          2.5542   -2.2647    6.6648 N.am      1 <0>        -0.6388
     17 C12         3.0147   -1.4709    7.7189 C.ar      1 <0>         0.1689
     18 C13         2.3896   -0.2643    8.0063 C.ar      1 <0>        -0.1138
     19 C14         2.8476    0.5183    9.0493 C.ar      1 <0>        -0.0092
     20 C15         3.9283    0.1009    9.8070 C.ar      1 <0>        -0.1129
     21 C16         4.5528   -1.0995    9.5236 C.ar      1 <0>        -0.0726
     22 C17         4.0960   -1.8899    8.4858 C.ar      1 <0>        -0.0640
     23 Cl1         4.8763   -3.4005    8.1354 Cl        1 <0>        -0.0486
     24 Cl2         2.0670    2.0265    9.4094 Cl        1 <0>        -0.0496
     25 O3          0.0261   -4.1410    0.0015 O.3       1 <0>        -0.3133
     26 C18         0.0268   -4.7872   -1.2730 C.3       1 <0>         0.0262
     27 H2          0.9552    1.8710    0.0016 H         1 <0>         0.0706
     28 H3         -0.5966    1.8470   -0.8700 H         1 <0>         0.0671
     29 H4         -0.5753    1.8437    0.9099 H         1 <0>         0.0672
     30 H5         -0.0540   -0.1609   -2.1230 H         1 <0>         0.1276
     31 H6         -0.0143   -2.6218   -2.1323 H         1 <0>         0.1322
     32 H7         -0.0132   -0.1688    2.1420 H         1 <0>         0.1268
     33 H8         -1.3898   -3.7657    3.8500 H         1 <0>         0.0656
     34 H9         -2.0015   -2.3148    3.0201 H         1 <0>         0.0611
     35 H10        -1.8436   -3.8486    2.1309 H         1 <0>         0.0754
     36 H11         0.5196   -1.0351    3.5061 H         1 <0>         0.4118
     37 H12         2.7173   -3.2209    6.6705 H         1 <0>         0.4290
     38 H13         1.5468    0.0622    7.4150 H         1 <0>         0.1658
     39 H14         4.2847    0.7146   10.6211 H         1 <0>         0.1477
     40 H15         5.3960   -1.4221   10.1164 H         1 <0>         0.1514
     41 H16         0.0451   -5.8680   -1.1324 H         1 <0>         0.1029
     42 H17        -0.8719   -4.5075   -1.8227 H         1 <0>         0.0571
     43 H18         0.9077   -4.4791   -1.8361 H         1 <0>         0.0566
@<TRIPOS>BOND
     1    1    2 1
     2    1   27 1
     3    1   28 1
     4    1   29 1
     5    2    7 ar
     6    2    3 ar
     7    3    4 ar
     8    3   30 1
     9    4    5 ar
    10    4   31 1
    11    5    6 ar
    12    5   25 1
    13    6    7 ar
    14    6    8 1
    15    7   32 1
    16    8    9 1
    17    8   10 1
    18    8   11 1
    19   10   33 1
    20   10   34 1
    21   10   35 1
    22   11   12 am
    23   11   36 1
    24   12   13 2
    25   12   14 1
    26   14   15 2
    27   14   16 am
    28   16   17 1
    29   16   37 1
    30   17   22 ar
    31   17   18 ar
    32   18   19 ar
    33   18   38 1
    34   19   20 ar
    35   19   24 1
    36   20   21 ar
    37   20   39 1
    38   21   22 ar
    39   21   40 1
    40   22   23 1
    41   25   26 1
    42   26   41 1
    43   26   42 1
    44   26   43 1
@<TRIPOS>MOLECULE
ZINC07348049
   48    50     0     0     0
SMALL
USER_CHARGES

@<TRIPOS>ATOM
      1 C1         -0.6606    1.4929    0.0362 C.3       1 <0>        -0.1187
      2 C2         -0.6132   -0.0133    0.0252 C.ar      1 <0>        -0.0788
      3 C3         -0.7726   -0.6991   -1.1658 C.ar      1 <0>        -0.1184
      4 C4         -0.7297   -2.0782   -1.1819 C.ar      1 <0>        -0.1046
      5 C5         -0.5253   -2.7804    0.0048 C.ar      1 <0>        -0.0323
      6 C6         -0.3654   -2.0844    1.2014 C.ar      1 <0>        -0.0801
      7 C7         -0.4049   -0.7047    1.2048 C.ar      1 <0>        -0.0899
      8 C8         -0.2265    0.0497    2.4972 C.3       1 <0>        -0.1171
      9 C9         -0.4787   -4.2630   -0.0061 C.2       1 <0>         0.1134
     10 C10        -0.5282   -4.9465   -1.1909 C.2       1 <0>        -0.2004
     11 S1         -0.4385   -6.6337   -0.6055 S.3       1 <0>         0.0075
     12 C11        -0.3453   -6.2595    1.1399 C.2       1 <0>         0.2003
     13 N1         -0.3836   -4.9353    1.1282 N.2       1 <0>        -0.5014
     14 C12        -0.2463   -7.1807    2.2885 C.2       1 <0>        -0.1140
     15 C13        -0.2148   -8.5277    2.0811 C.2       1 <0>         0.2412
     16 N2         -0.1232   -9.3804    3.1442 N.pl3     1 <0>        -0.6308
     17 C14        -0.0909  -10.7623    2.9315 C.ar      1 <0>         0.1362
     18 C15        -0.1464  -11.2677    1.6386 C.ar      1 <0>        -0.1419
     19 C16        -0.1146  -12.6316    1.4289 C.ar      1 <0>        -0.1057
     20 C17        -0.0276  -13.4987    2.5103 C.ar      1 <0>         0.1248
     21 C18         0.0278  -12.9937    3.8029 C.ar      1 <0>        -0.0828
     22 C19         0.0022  -11.6297    4.0128 C.ar      1 <0>        -0.1305
     23 N3          0.0037  -14.8828    2.2973 N.am      1 <0>        -0.6744
     24 C20        -0.5634  -15.7154    3.1926 C.2       1 <0>         0.5104
     25 O1         -1.1834  -15.2642    4.1325 O.2       1 <0>        -0.5251
     26 C21        -0.4272  -17.2070    3.0261 C.3       1 <0>        -0.1710
     27 C22        -0.1832   -6.6597    3.6208 C.1       1 <0>         0.2654
     28 N4         -0.1332   -6.2464    4.6778 N.1       1 <0>        -0.4145
     29 H1          0.3426    1.8891   -0.1210 H         1 <0>         0.0718
     30 H2         -1.3178    1.8416   -0.7604 H         1 <0>         0.0672
     31 H3         -1.0408    1.8374    0.9979 H         1 <0>         0.0695
     32 H4         -0.9313   -0.1540   -2.0846 H         1 <0>         0.1259
     33 H5         -0.8546   -2.6125   -2.1122 H         1 <0>         0.1243
     34 H6         -0.2068   -2.6234    2.1238 H         1 <0>         0.1309
     35 H7         -1.1981    0.1981    2.9684 H         1 <0>         0.0710
     36 H8          0.4179   -0.5217    3.1654 H         1 <0>         0.0667
     37 H9          0.2299    1.0182    2.2925 H         1 <0>         0.0695
     38 H10        -0.6015   -4.5706   -2.2007 H         1 <0>         0.2008
     39 H11        -0.2624   -8.9206    1.0763 H         1 <0>         0.1760
     40 H12        -0.0805   -9.0275    4.0468 H         1 <0>         0.4177
     41 H13        -0.2147  -10.5935    0.7976 H         1 <0>         0.1353
     42 H14        -0.1576  -13.0245    0.4239 H         1 <0>         0.1362
     43 H15         0.0954  -13.6682    4.6436 H         1 <0>         0.1423
     44 H16         0.0502  -11.2370    5.0177 H         1 <0>         0.1339
     45 H17         0.4335  -15.2420    1.5054 H         1 <0>         0.4134
     46 H18         0.1585  -17.4207    2.1320 H         1 <0>         0.0796
     47 H19         0.0750  -17.6256    3.8982 H         1 <0>         0.1009
     48 H20        -1.4167  -17.6534    2.9275 H         1 <0>         0.1001
@<TRIPOS>BOND
     1    1    2 1
     2    1   29 1
     3    1   30 1
     4    1   31 1
     5    2    7 ar
     6    2    3 ar
     7    3    4 ar
     8    3   32 1
     9    4    5 ar
    10    4   33 1
    11    5    6 ar
    12    5    9 1
    13    6    7 ar
    14    6   34 1
    15    7    8 1
    16    8   35 1
    17    8   36 1
    18    8   37 1
    19    9   13 1
    20    9   10 2
    21   10   11 1
    22   10   38 1
    23   11   12 1
    24   12   13 2
    25   12   14 1
    26   14   15 2
    27   14   27 1
    28   15   16 1
    29   15   39 1
    30   16   17 1
    31   16   40 1
    32   17   22 ar
    33   17   18 ar
    34   18   19 ar
    35   18   41 1
    36   19   20 ar
    37   19   42 1
    38   20   21 ar
    39   20   23 1
    40   21   22 ar
    41   21   43 1
    42   22   44 1
    43   23   24 am
    44   23   45 1
    45   24   25 2
    46   24   26 1
    47   26   46 1
    48   26   47 1
    49   26   48 1
    50   27   28 3
@<TRIPOS>MOLECULE
ZINC67646311
   50    52     0     0     0
SMALL
USER_CHARGES

@<TRIPOS>ATOM
      1 C1         -0.0184    1.5028    0.0103 C.3       1 <0>        -0.0711
      2 C2          0.0021   -0.0041    0.0020 C.2       1 <0>         0.2220
      3 N1          0.0080   -0.7602   -1.0620 N.2       1 <0>        -0.4821
      4 C3          0.0270   -2.0489   -0.6911 C.2       1 <0>        -0.0180
      5 C4          0.0332   -2.0990    0.6547 C.2       1 <0>        -0.0509
      6 N2          0.0234   -0.8027    1.1003 N.pl3     1 <0>        -0.4215
      7 C5          0.0310   -0.3806    2.4384 C.ar      1 <0>         0.0888
      8 C6          1.1332   -0.6361    3.2419 C.ar      1 <0>        -0.0791
      9 C7          1.1382   -0.2196    4.5590 C.ar      1 <0>        -0.0941
     10 C8          0.0463    0.4514    5.0786 C.ar      1 <0>        -0.0697
     11 C9         -1.0543    0.7079    4.2823 C.ar      1 <0>        -0.1213
     12 C10        -1.0631    0.2994    2.9606 C.ar      1 <0>         0.1099
     13 F1         -2.1358    0.5557    2.1804 F         1 <0>        -0.1232
     14 C11         0.0560    0.9035    6.5161 C.3       1 <0>         0.1793
     15 N3          0.6172    2.2542    6.5995 N.am      1 <0>        -0.7432
     16 C12         0.7252    2.8664    7.7953 C.2       1 <0>         0.7099
     17 O1          0.3569    2.2978    8.8049 O.2       1 <0>        -0.5835
     18 N4          1.2414    4.1090    7.8719 N.am      1 <0>        -0.7402
     19 C13         1.3588    4.7746    9.1718 C.3       1 <0>         0.1694
     20 H1          1.5938    4.0360    9.9382 H         1 <0>         0.1039
     21 C14         0.0354    5.4617    9.5143 C.3       1 <0>        -0.1283
     22 C15        -0.2943    6.4984    8.4385 C.3       1 <0>        -0.1214
     23 C16         0.8219    7.5430    8.3776 C.3       1 <0>        -0.1168
     24 C17         2.1453    6.8559    8.0351 C.3       1 <0>        -0.1197
     25 C18         2.4751    5.8191    9.1109 C.3       1 <0>        -0.1425
     26 H2          2.5625    6.3143   10.0780 H         1 <0>         0.1317
     27 C19         3.7985    5.1320    8.7684 C.3       1 <0>         0.4551
     28 F2          3.6864    4.4965    7.5271 F         1 <0>        -0.1811
     29 F3          4.8192    6.0871    8.7128 F         1 <0>        -0.1816
     30 F4          4.1000    4.1840    9.7521 F         1 <0>        -0.1793
     31 H3          1.0042    1.8801    0.0026 H         1 <0>         0.0832
     32 H4         -0.5455    1.8639   -0.8728 H         1 <0>         0.0953
     33 H5         -0.5286    1.8543    0.9071 H         1 <0>         0.0702
     34 H6          0.0352   -2.8995   -1.3566 H         1 <0>         0.1764
     35 H7          0.0475   -2.9895    1.2656 H         1 <0>         0.1782
     36 H8          1.9864   -1.1607    2.8379 H         1 <0>         0.1444
     37 H9          1.9961   -0.4186    5.1841 H         1 <0>         0.1451
     38 H10        -1.9058    1.2316    4.6910 H         1 <0>         0.1501
     39 H11        -0.9633    0.9091    6.9021 H         1 <0>         0.0833
     40 H12         0.6649    0.2200    7.1079 H         1 <0>         0.0850
     41 H13         0.9110    2.7079    5.7940 H         1 <0>         0.3982
     42 H14         1.5352    4.5627    7.0665 H         1 <0>         0.3983
     43 H15        -0.7598    4.7175    9.5576 H         1 <0>         0.0796
     44 H16         0.1228    5.9569   10.4814 H         1 <0>         0.0779
     45 H17        -0.3817    6.0033    7.4714 H         1 <0>         0.0639
     46 H18        -1.2371    6.9880    8.6825 H         1 <0>         0.0692
     47 H19         0.5870    8.2816    7.6112 H         1 <0>         0.0737
     48 H20         0.9093    8.0382    9.3447 H         1 <0>         0.0704
     49 H21         2.0580    6.3607    7.0680 H         1 <0>         0.0728
     50 H22         2.9406    7.6000    7.9918 H         1 <0>         0.0831
@<TRIPOS>BOND
     1    1    2 1
     2    1   31 1
     3    1   32 1
     4    1   33 1
     5    2    6 1
     6    2    3 2
     7    3    4 1
     8    4    5 2
     9    4   34 1
    10    5    6 1
    11    5   35 1
    12    6    7 1
    13    7   12 ar
    14    7    8 ar
    15    8    9 ar
    16    8   36 1
    17    9   10 ar
    18    9   37 1
    19   10   11 ar
    20   10   14 1
    21   11   12 ar
    22   11   38 1
    23   12   13 1
    24   14   15 1
    25   14   39 1
    26   14   40 1
    27   15   16 am
    28   15   41 1
    29   16   17 2
    30   16   18 am
    31   18   19 1
    32   18   42 1
    33   19   20 1
    34   19   25 1
    35   19   21 1
    36   21   22 1
    37   21   43 1
    38   21   44 1
    39   22   23 1
    40   22   45 1
    41   22   46 1
    42   23   24 1
    43   23   47 1
    44   23   48 1
    45   24   25 1
    46   24   49 1
    47   24   50 1
    48   25   26 1
    49   25   27 1
    50   27   28 1
    51   27   29 1
    52   27   30 1
@<TRIPOS>MOLECULE
ZINC35332783
   32    34     0     0     0
SMALL
USER_CHARGES

@<TRIPOS>ATOM
      1 C1          0.9702   -0.3367   -0.9811 C.ar      1 <0>        -0.1496
      2 C2          2.1508    0.3777   -1.0350 C.ar      1 <0>        -0.0622
      3 C3          2.3663    1.4278   -0.1602 C.ar      1 <0>        -0.1044
      4 C4          1.4001    1.7658    0.7708 C.ar      1 <0>        -0.0597
      5 C5          0.2174    1.0553    0.8297 C.ar      1 <0>        -0.1358
      6 C6         -0.0019    0.0003   -0.0474 C.ar      1 <0>         0.1632
      7 N1         -1.1973   -0.7204    0.0096 N.pl3     1 <0>        -0.6736
      8 C7         -1.1795   -2.1137   -0.1036 C.ar      1 <0>         0.1629
      9 C8          0.0203   -2.7946   -0.1136 C.ar      1 <0>        -0.0684
     10 C9          0.0537   -4.1805   -0.2251 C.ar      1 <0>        -0.1429
     11 C10        -1.1111   -4.9117   -0.3291 C.ar      1 <0>         0.2457
     12 C11        -2.3528   -4.2456   -0.3218 C.ar      1 <0>        -0.1296
     13 C12        -2.3853   -2.8319   -0.2022 C.ar      1 <0>        -0.0236
     14 C13        -3.6383   -2.1938   -0.1926 C.ar      1 <0>        -0.0719
     15 C14        -4.7615   -2.9576   -0.2926 C.ar      1 <0>         0.0388
     16 N2         -4.7024   -4.2784   -0.3980 N.ar      1 <0>        -0.4533
     17 C15        -3.5677   -4.9385   -0.4251 C.ar      1 <0>         0.2210
     18 N3         -1.0603   -6.3021   -0.4412 N.pl3     1 <0>        -0.8497
     19 Br1         3.9849    2.4026   -0.2366 Br        1 <0>        -0.0335
     20 H1          0.8009   -1.1536   -1.6669 H         1 <0>         0.1369
     21 H2          2.9069    0.1162   -1.7606 H         1 <0>         0.1419
     22 H3          1.5711    2.5860    1.4524 H         1 <0>         0.1425
     23 H4         -0.5361    1.3192    1.5570 H         1 <0>         0.1378
     24 H5         -2.0396   -0.2541    0.1278 H         1 <0>         0.4141
     25 H6          0.9460   -2.2440   -0.0342 H         1 <0>         0.1574
     26 H7          1.0052   -4.6914   -0.2307 H         1 <0>         0.1529
     27 H8         -3.7086   -1.1195   -0.1073 H         1 <0>         0.1708
     28 H9         -5.7273   -2.4743   -0.2855 H         1 <0>         0.1991
     29 H10        -3.5703   -6.0149   -0.5131 H         1 <0>         0.2021
     30 H11        -0.2038   -6.7573   -0.4462 H         1 <0>         0.4199
     31 H12        -1.8816   -6.8131   -0.5141 H         1 <0>         0.4025
     32 H13        -5.5317   -4.7768   -0.4665 H         1 <0>         0.4485
@<TRIPOS>BOND
     1    1    6 ar
     2    1    2 ar
     3    1   20 1
     4    2    3 ar
     5    2   21 1
     6    3    4 ar
     7    3   19 1
     8    4    5 ar
     9    4   22 1
    10    5    6 ar
    11    5   23 1
    12    6    7 1
    13    7    8 1
    14    7   24 1
    15    8   13 ar
    16    8    9 ar
    17    9   10 ar
    18    9   25 1
    19   10   11 ar
    20   10   26 1
    21   11   12 ar
    22   11   18 1
    23   12   17 ar
    24   12   13 ar
    25   13   14 ar
    26   14   15 ar
    27   14   27 1
    28   15   16 ar
    29   15   28 1
    30   16   17 ar
    31   16   32 1
    32   17   29 1
    33   18   30 1
    34   18   31 1
@<TRIPOS>MOLECULE
ZINC37614449
   32    33     0     0     0
SMALL
USER_CHARGES

@<TRIPOS>ATOM
      1 C1         -1.9576    1.5772   -1.1198 C.3       1 <0>        -0.1743
      2 C2         -0.6107    1.0195   -0.6553 C.3       1 <0>         0.0892
      3 C3          0.1469    2.0976    0.1222 C.3       1 <0>        -0.1765
      4 C4          0.6905    1.7228    1.5024 C.3       1 <0>        -0.1817
      5 C5         -0.5156    2.6566    1.3829 C.3       1 <0>        -0.1586
      6 C6          0.2004    0.6014   -1.8546 C.2       1 <0>         0.5115
      7 O1          1.0104    1.3657   -2.3353 O.2       1 <0>        -0.4423
      8 N1          0.0259   -0.6217   -2.3931 N.am      1 <0>        -0.6797
      9 C7          0.7016   -0.9722   -3.5690 C.ar      1 <0>         0.1297
     10 C8          1.9464   -1.5853   -3.5000 C.ar      1 <0>        -0.0006
     11 C9          2.6106   -1.9305   -4.6621 C.ar      1 <0>        -0.0896
     12 C10         2.0371   -1.6655   -5.8932 C.ar      1 <0>         0.0038
     13 C11         0.7974   -1.0549   -5.9651 C.ar      1 <0>        -0.0892
     14 C12         0.1258   -0.7126   -4.8064 C.ar      1 <0>        -0.0021
     15 Cl1        -1.4323    0.0474   -4.8974 Cl        1 <0>        -0.0266
     16 Cl2         2.8748   -2.0994   -7.3505 Cl        1 <0>        -0.0158
     17 Cl3         2.6671   -1.9171   -1.9560 Cl        1 <0>        -0.0321
     18 N2         -0.8357   -0.1437    0.2133 N.4       1 <0>        -0.6391
     19 H1         -1.7907    2.4403   -1.7643 H         1 <0>         0.1202
     20 H2         -2.4974    0.8091   -1.6737 H         1 <0>         0.0910
     21 H3         -2.5443    1.8795   -0.2523 H         1 <0>         0.1041
     22 H4          0.7386    2.7850   -0.4824 H         1 <0>         0.1611
     23 H5          0.5083    0.7082    1.8565 H         1 <0>         0.0904
     24 H6          1.6401    2.1636    1.8060 H         1 <0>         0.1269
     25 H7         -0.3595    3.7116    1.6079 H         1 <0>         0.1251
     26 H8         -1.4913    2.2563    1.6585 H         1 <0>         0.1053
     27 H9         -0.5677   -1.2593   -1.9664 H         1 <0>         0.4045
     28 H10         3.5783   -2.4071   -4.6091 H         1 <0>         0.1637
     29 H11         0.3525   -0.8490   -6.9274 H         1 <0>         0.1640
     30 H12        -1.3353   -0.8547   -0.2994 H         1 <0>         0.4330
     31 H13         0.0526   -0.5115    0.5196 H         1 <0>         0.4409
     32 H14        -1.3788    0.1362    1.0163 H         1 <0>         0.4441
@<TRIPOS>BOND
     1    1    2 1
     2    1   19 1
     3    1   20 1
     4    1   21 1
     5    2    3 1
     6    2    6 1
     7    2   18 1
     8    3    5 1
     9    3    4 1
    10    3   22 1
    11    4    5 1
    12    4   23 1
    13    4   24 1
    14    5   25 1
    15    5   26 1
    16    6    7 2
    17    6    8 am
    18    8    9 1
    19    8   27 1
    20    9   14 ar
    21    9   10 ar
    22   10   11 ar
    23   10   17 1
    24   11   12 ar
    25   11   28 1
    26   12   13 ar
    27   12   16 1
    28   13   14 ar
    29   13   29 1
    30   14   15 1
    31   18   30 1
    32   18   31 1
    33   18   32 1
@<TRIPOS>MOLECULE
ZINC42352286
   36    37     0     0     0
SMALL
USER_CHARGES

@<TRIPOS>ATOM
      1 C1         -0.0187    1.5258    0.0104 C.3       1 <0>        -0.1791
      2 C2          0.0021   -0.0041    0.0020 C.3       1 <0>         0.0860
      3 H1          0.5293   -0.3651    0.8851 H         1 <0>         0.1535
      4 C3         -1.4117   -0.5257    0.0127 C.ar      1 <0>        -0.1789
      5 C4         -1.9968   -0.9586   -1.1621 C.ar      1 <0>        -0.0983
      6 C5         -3.2927   -1.4374   -1.1555 C.ar      1 <0>        -0.1380
      7 C6         -4.0103   -1.4846    0.0316 C.ar      1 <0>         0.1563
      8 C7         -3.4257   -1.0509    1.2112 C.ar      1 <0>        -0.1616
      9 C8         -2.1230   -0.5762    1.2030 C.ar      1 <0>         0.1597
     10 O1         -1.5450   -0.1559    2.3589 O.3       1 <0>        -0.4916
     11 O2         -5.2852   -1.9552    0.0373 O.3       1 <0>        -0.4915
     12 N1          0.6897   -0.4778   -1.2066 N.4       1 <0>        -0.5082
     13 C9          2.1002   -0.0703   -1.1590 C.3       1 <0>         0.0415
     14 C10         2.8056   -0.5563   -2.3989 C.ar      1 <0>        -0.1545
     15 C11         3.4007   -1.8040   -2.4111 C.ar      1 <0>        -0.0850
     16 C12         4.0473   -2.2503   -3.5482 C.ar      1 <0>        -0.0876
     17 C13         4.0990   -1.4484   -4.6741 C.ar      1 <0>        -0.0621
     18 C14         3.5034   -0.2000   -4.6614 C.ar      1 <0>        -0.0877
     19 C15         2.8524    0.2434   -3.5256 C.ar      1 <0>        -0.0856
     20 Br1         4.9841   -2.0582   -6.2299 Br        1 <0>        -0.0156
     21 H2          1.0039    1.9031    0.0027 H         1 <0>         0.0885
     22 H3         -0.5459    1.8868   -0.8726 H         1 <0>         0.0847
     23 H4         -0.5289    1.8773    0.9072 H         1 <0>         0.1038
     24 H5         -1.4402   -0.9223   -2.0868 H         1 <0>         0.1252
     25 H6         -3.7479   -1.7748   -2.0749 H         1 <0>         0.1457
     26 H7         -3.9825   -1.0869    2.1359 H         1 <0>         0.1504
     27 H8         -1.6800    0.7829    2.5475 H         1 <0>         0.4031
     28 H9         -5.3521   -2.9078    0.1891 H         1 <0>         0.4071
     29 H10         0.6317   -1.4840   -1.2540 H         1 <0>         0.4302
     30 H11         2.1628    1.0167   -1.1079 H         1 <0>         0.1437
     31 H12         2.5740   -0.5034   -0.2781 H         1 <0>         0.1432
     32 H13         3.3606   -2.4299   -1.5319 H         1 <0>         0.1420
     33 H14         4.5125   -3.2250   -3.5576 H         1 <0>         0.1469
     34 H15         3.5434    0.4265   -5.5402 H         1 <0>         0.1469
     35 H16         2.3838    1.2164   -3.5169 H         1 <0>         0.1416
     36 H17         0.2511   -0.0769   -2.0221 H         1 <0>         0.4249
@<TRIPOS>BOND
     1    1    2 1
     2    1   21 1
     3    1   22 1
     4    1   23 1
     5    2    3 1
     6    2    4 1
     7    2   12 1
     8    4    9 ar
     9    4    5 ar
    10    5    6 ar
    11    5   24 1
    12    6    7 ar
    13    6   25 1
    14    7    8 ar
    15    7   11 1
    16    8    9 ar
    17    8   26 1
    18    9   10 1
    19   10   27 1
    20   11   28 1
    21   12   13 1
    22   12   29 1
    23   12   36 1
    24   13   14 1
    25   13   30 1
    26   13   31 1
    27   14   19 ar
    28   14   15 ar
    29   15   16 ar
    30   15   32 1
    31   16   17 ar
    32   16   33 1
    33   17   18 ar
    34   17   20 1
    35   18   19 ar
    36   18   34 1
    37   19   35 1
@<TRIPOS>MOLECULE
ZINC51171742
   38    40     0     0     0
SMALL
USER_CHARGES

@<TRIPOS>ATOM
      1 C1         -0.0187    1.5258    0.0104 C.3       1 <0>        -0.1561
      2 C2          0.0021   -0.0041    0.0020 C.3       1 <0>        -0.1498
      3 C3         -1.4333   -0.5336    0.0129 C.3       1 <0>        -0.0157
      4 N1         -1.4134   -2.0025    0.0048 N.4       1 <0>        -0.5095
      5 C4         -2.7915   -2.5110    0.0152 C.3       1 <0>         0.1969
      6 H1         -3.3444   -2.0792   -0.8190 H         1 <0>         0.1661
      7 C5         -2.7742   -4.0121   -0.1168 C.ar      1 <0>        -0.1404
      8 C6         -1.8201   -4.7525    0.5600 C.ar      1 <0>        -0.1075
      9 C7         -1.7961   -6.1286    0.4453 C.ar      1 <0>        -0.0871
     10 C8         -2.7316   -6.7712   -0.3513 C.ar      1 <0>         0.1234
     11 C9         -3.6939   -6.0244   -1.0340 C.ar      1 <0>         0.1036
     12 C10        -3.7135   -4.6436   -0.9081 C.ar      1 <0>        -0.0647
     13 N2         -4.4815   -6.9312   -1.7392 N.am      1 <0>        -0.6389
     14 H2         -5.2342   -6.7067   -2.3083 H         1 <0>         0.4429
     15 C11        -4.0197   -8.1724   -1.4967 C.2       1 <0>         0.6854
     16 O1         -4.4851   -9.1965   -1.9609 O.2       1 <0>        -0.5268
     17 N3         -2.9645   -8.1086   -0.6629 N.am      1 <0>        -0.6385
     18 H3         -2.4535   -8.8651   -0.3351 H         1 <0>         0.4441
     19 C12        -3.4583   -2.1284    1.3114 C.2       1 <0>        -0.2433
     20 C13        -4.7288   -1.7086    1.5259 C.2       1 <0>        -0.0684
     21 C14        -5.1276   -1.4093    2.8155 C.2       1 <0>        -0.1526
     22 C15        -4.2346   -1.5450    3.8276 C.2       1 <0>        -0.0746
     23 S1         -2.7815   -2.1183    2.9634 S.3       1 <0>         0.1055
     24 Cl1        -4.4508   -1.2455    5.5239 Cl        1 <0>         0.0514
     25 H4          1.0039    1.9031    0.0027 H         1 <0>         0.0785
     26 H5         -0.5459    1.8868   -0.8726 H         1 <0>         0.0678
     27 H6         -0.5289    1.8773    0.9072 H         1 <0>         0.0674
     28 H7          0.5123   -0.3556   -0.8948 H         1 <0>         0.0888
     29 H8          0.5293   -0.3651    0.8851 H         1 <0>         0.0871
     30 H9         -1.9435   -0.1821    0.9097 H         1 <0>         0.1328
     31 H10        -1.9605   -0.1726   -0.8702 H         1 <0>         0.1377
     32 H11        -0.9411   -2.3279   -0.8254 H         1 <0>         0.4376
     33 H12        -1.0913   -4.2519    1.1802 H         1 <0>         0.1283
     34 H13        -1.0502   -6.7029    0.9746 H         1 <0>         0.1475
     35 H14        -4.4590   -4.0630   -1.4312 H         1 <0>         0.1453
     36 H15        -5.4194   -1.6090    0.7016 H         1 <0>         0.1539
     37 H16        -6.1344   -1.0723    3.0139 H         1 <0>         0.1592
     38 H17        -0.9254   -2.3367    0.8222 H         1 <0>         0.4227
@<TRIPOS>BOND
     1    1    2 1
     2    1   25 1
     3    1   26 1
     4    1   27 1
     5    2    3 1
     6    2   28 1
     7    2   29 1
     8    3    4 1
     9    3   30 1
    10    3   31 1
    11    4    5 1
    12    4   32 1
    13    4   38 1
    14    5    6 1
    15    5    7 1
    16    5   19 1
    17    7   12 ar
    18    7    8 ar
    19    8    9 ar
    20    8   33 1
    21    9   10 ar
    22    9   34 1
    23   10   17 1
    24   10   11 ar
    25   11   12 ar
    26   11   13 1
    27   12   35 1
    28   13   14 1
    29   13   15 am
    30   15   16 2
    31   15   17 am
    32   17   18 1
    33   19   23 1
    34   19   20 2
    35   20   21 1
    36   20   36 1
    37   21   22 2
    38   21   37 1
    39   22   23 1
    40   22   24 1
@<TRIPOS>MOLECULE
ZINC63210763
   48    50     0     0     0
SMALL
USER_CHARGES

@<TRIPOS>ATOM
      1 C1         -0.0167    1.3766    0.0096 C.2       1 <0>        -0.0358
      2 C2          1.2149    2.0258    0.0013 C.2       1 <0>        -0.1432
      3 C3          2.3179    1.2321   -0.0154 C.2       1 <0>        -0.1583
      4 S1          1.7518   -0.3425   -0.0149 S.3       1 <0>         0.1787
      5 C4          0.0021   -0.0041    0.0020 C.2       1 <0>        -0.2905
      6 C5         -1.1222   -0.9446    0.0071 C.2       1 <0>         0.6194
      7 O1         -2.2651   -0.5267    0.0196 O.2       1 <0>        -0.4995
      8 N1         -0.8902   -2.2722   -0.0021 N.am      1 <0>        -0.7542
      9 C6         -2.0138   -3.2123    0.0029 C.3       1 <0>         0.1339
     10 H1         -2.8200   -2.7923    0.6044 H         1 <0>         0.1188
     11 C7         -2.5153   -3.3948   -1.4423 C.3       1 <0>        -0.1299
     12 C8         -3.3656   -4.6255   -1.6056 C.3       1 <0>        -0.1228
     13 C9         -2.4638   -5.7850   -2.0762 C.3       1 <0>        -0.1348
     14 C10        -1.7195   -6.3888   -0.9808 C.3       1 <0>        -0.1120
     15 C11        -0.7594   -5.3907   -0.3019 C.3       1 <0>        -0.1527
     16 C12        -1.5523   -4.5348    0.6445 C.3       1 <0>         0.0258
     17 H2         -2.4294   -5.0923    0.9731 H         1 <0>         0.1573
     18 N2         -0.7199   -4.2297    1.8159 N.4       1 <0>        -0.6392
     19 C13         3.7562    1.6577   -0.0350 C.3       1 <0>        -0.0491
     20 C14         3.8956    3.0181    0.6569 C.3       1 <0>        -0.1183
     21 C15         3.7071    4.1161   -0.3853 C.3       1 <0>        -0.1251
     22 C16         2.3191    4.0274   -1.0138 C.3       1 <0>        -0.1193
     23 C17         1.2987    3.5484    0.0134 C.3       1 <0>        -0.0616
     24 H3         -0.9450    1.9282    0.0258 H         1 <0>         0.1489
     25 H4          0.0208   -2.6053   -0.0121 H         1 <0>         0.3941
     26 H5         -3.1021   -2.5208   -1.7250 H         1 <0>         0.0886
     27 H6         -1.6550   -3.4698   -2.1073 H         1 <0>         0.0792
     28 H7         -3.8245   -4.8828   -0.6509 H         1 <0>         0.0681
     29 H8         -4.1405   -4.4393   -2.3492 H         1 <0>         0.0823
     30 H9         -3.0856   -6.5485   -2.5435 H         1 <0>         0.0767
     31 H10        -1.7583   -5.4057   -2.8155 H         1 <0>         0.0697
     32 H11        -2.4248   -6.7612   -0.2379 H         1 <0>         0.0722
     33 H12        -1.1410   -7.2278   -1.3674 H         1 <0>         0.0839
     34 H13         0.0057   -5.9365    0.2503 H         1 <0>         0.0931
     35 H14        -0.2903   -4.7616   -1.0583 H         1 <0>         0.0988
     36 H15        -1.2590   -3.6971    2.4821 H         1 <0>         0.4386
     37 H16        -0.4125   -5.0904    2.2434 H         1 <0>         0.4399
     38 H17         4.3609    0.9189    0.4908 H         1 <0>         0.0824
     39 H18         4.0972    1.7384   -1.0672 H         1 <0>         0.0933
     40 H19         3.1348    3.1143    1.4315 H         1 <0>         0.0742
     41 H20         4.8871    3.1024    1.1018 H         1 <0>         0.0761
     42 H21         3.8237    5.0889    0.0924 H         1 <0>         0.0681
     43 H22         4.4619    4.0060   -1.1639 H         1 <0>         0.0674
     44 H23         2.0262    5.0109   -1.3811 H         1 <0>         0.0714
     45 H24         2.3456    3.3273   -1.8489 H         1 <0>         0.0623
     46 H25         0.3210    3.9659   -0.2270 H         1 <0>         0.0742
     47 H26         1.5992    3.8858    1.0054 H         1 <0>         0.0827
     48 H27         0.0835   -3.6921    1.5268 H         1 <0>         0.4263
@<TRIPOS>BOND
     1    1    5 2
     2    1    2 1
     3    1   24 1
     4    2   23 1
     5    2    3 2
     6    3    4 1
     7    3   19 1
     8    4    5 1
     9    5    6 1
    10    6    7 2
    11    6    8 am
    12    8    9 1
    13    8   25 1
    14    9   10 1
    15    9   16 1
    16    9   11 1
    17   11   12 1
    18   11   26 1
    19   11   27 1
    20   12   13 1
    21   12   28 1
    22   12   29 1
    23   13   14 1
    24   13   30 1
    25   13   31 1
    26   14   15 1
    27   14   32 1
    28   14   33 1
    29   15   16 1
    30   15   34 1
    31   15   35 1
    32   16   17 1
    33   16   18 1
    34   18   36 1
    35   18   37 1
    36   18   48 1
    37   19   20 1
    38   19   38 1
    39   19   39 1
    40   20   21 1
    41   20   40 1
    42   20   41 1
    43   21   22 1
    44   21   42 1
    45   21   43 1
    46   22   23 1
    47   22   44 1
    48   22   45 1
    49   23   46 1
    50   23   47 1
@<TRIPOS>MOLECULE
ZINC38808928
   40    41     0     0     0
SMALL
USER_CHARGES

@<TRIPOS>ATOM
      1 C1         -0.4859    1.3044    0.5819 C.ar      1 <0>        -0.0608
      2 C2          0.5584    2.1589    0.8813 C.ar      1 <0>        -0.0642
      3 C3          1.8510    1.6718    0.9550 C.ar      1 <0>        -0.0596
      4 C4          2.0978    0.3296    0.7290 C.ar      1 <0>        -0.0619
      5 C5          1.0528   -0.5241    0.4297 C.ar      1 <0>        -0.1541
      6 C6         -0.2388   -0.0369    0.3561 C.ar      1 <0>        -0.1708
      7 C7         -1.3778   -0.9681    0.0298 C.3       1 <0>         0.0519
      8 H1         -2.3172   -0.5211    0.3549 H         1 <0>         0.1927
      9 C8         -1.4231   -1.2086   -1.4805 C.3       1 <0>        -0.0240
     10 N1         -0.2165   -1.9355   -1.8971 N.4       1 <0>        -0.6509
     11 N2         -1.1784   -2.2475    0.7236 N.4       1 <0>        -0.3697
     12 C9         -2.3012   -3.1460    0.3916 C.3       1 <0>        -0.0283
     13 C10        -1.8360   -4.5699    0.5667 C.3       1 <0>        -0.1531
     14 C11        -2.2213   -5.1223    1.9518 C.3       1 <0>        -0.1337
     15 C12        -2.0195   -4.0723    3.0630 C.3       1 <0>        -0.1442
     16 C13        -0.7453   -3.2866    2.8861 C.3       1 <0>        -0.1320
     17 C14        -1.0531   -2.0001    2.0917 C.3       1 <0>        -0.0468
     18 Br1         3.2803    2.8405    1.3639 Br        1 <0>         0.0143
     19 H2         -1.4957    1.6838    0.5287 H         1 <0>         0.1547
     20 H3          0.3653    3.2068    1.0573 H         1 <0>         0.1593
     21 H4          3.1068   -0.0510    0.7861 H         1 <0>         0.1567
     22 H5          1.2454   -1.5721    0.2532 H         1 <0>         0.1207
     23 H6         -2.3060   -1.7980   -1.7282 H         1 <0>         0.1701
     24 H7         -1.4680   -0.2513   -1.9997 H         1 <0>         0.1869
     25 H8          0.5978   -1.3683   -1.7144 H         1 <0>         0.4455
     26 H9         -0.1481   -2.7987   -1.3791 H         1 <0>         0.4200
     27 H10        -3.1395   -2.9486    1.0597 H         1 <0>         0.1562
     28 H11        -2.6082   -2.9841   -0.6416 H         1 <0>         0.1349
     29 H12        -2.2921   -5.1911   -0.2042 H         1 <0>         0.1194
     30 H13        -0.7521   -4.6066    0.4573 H         1 <0>         0.0792
     31 H14        -3.2683   -5.4248    1.9348 H         1 <0>         0.0884
     32 H15        -1.6046   -5.9940    2.1706 H         1 <0>         0.0892
     33 H16        -2.8635   -3.3827    3.0545 H         1 <0>         0.0725
     34 H17        -1.9903   -4.5799    4.0272 H         1 <0>         0.0952
     35 H18        -0.3406   -3.0236    3.8634 H         1 <0>         0.1184
     36 H19        -0.0191   -3.8879    2.3392 H         1 <0>         0.0869
     37 H20        -0.2465   -1.2843    2.2500 H         1 <0>         0.1412
     38 H21        -1.9841   -1.5699    2.4608 H         1 <0>         0.1416
     39 H22        -0.3225   -2.6655    0.3906 H         1 <0>         0.3949
     40 H23        -0.2702   -2.1389   -2.8839 H         1 <0>         0.4634
@<TRIPOS>BOND
     1    1    6 ar
     2    1    2 ar
     3    1   19 1
     4    2    3 ar
     5    2   20 1
     6    3    4 ar
     7    3   18 1
     8    4    5 ar
     9    4   21 1
    10    5    6 ar
    11    5   22 1
    12    6    7 1
    13    7    8 1
    14    7    9 1
    15    7   11 1
    16    9   10 1
    17    9   23 1
    18    9   24 1
    19   10   25 1
    20   10   26 1
    21   10   40 1
    22   11   17 1
    23   11   12 1
    24   11   39 1
    25   12   13 1
    26   12   27 1
    27   12   28 1
    28   13   14 1
    29   13   29 1
    30   13   30 1
    31   14   15 1
    32   14   31 1
    33   14   32 1
    34   15   16 1
    35   15   33 1
    36   15   34 1
    37   16   17 1
    38   16   35 1
    39   16   36 1
    40   17   37 1
    41   17   38 1
@<TRIPOS>MOLECULE
ZINC42580512
   43    44     0     0     0
SMALL
USER_CHARGES

@<TRIPOS>ATOM
      1 C1         -0.4024   -0.5757   -1.4795 C.3       1 <0>        -0.1950
      2 C2         -0.3992   -0.0906   -0.0284 C.3       1 <0>         0.0185
      3 C3         -1.7116   -0.4937    0.6469 C.3       1 <0>        -0.1911
      4 N1          0.7283   -0.7004    0.6892 N.4       1 <0>        -0.3841
      5 C4          0.8304   -0.1117    2.0312 C.3       1 <0>        -0.0074
      6 C5          1.1010    1.3893    1.9105 C.3       1 <0>        -0.2205
      7 C6          2.4269    1.9149    2.4642 C.3       1 <0>        -0.1617
      8 C7          1.1192    2.2099    3.2017 C.3       1 <0>        -0.1422
      9 C8          0.5095   -2.1484    0.8049 C.3       1 <0>         0.0427
     10 H1         -0.5047   -2.3355    1.1578 H         1 <0>         0.1699
     11 C9          1.5122   -2.7378    1.7989 C.3       1 <0>        -0.0278
     12 N2          0.9853   -2.6038    3.1636 N.4       1 <0>        -0.6531
     13 C10         0.6996   -2.7945   -0.5432 C.ar      1 <0>        -0.1345
     14 C11         1.6572   -2.3084   -1.4138 C.ar      1 <0>        -0.1014
     15 C12         1.8322   -2.9004   -2.6505 C.ar      1 <0>        -0.0756
     16 C13         1.0495   -3.9790   -3.0185 C.ar      1 <0>        -0.0548
     17 C14         0.0910   -4.4665   -2.1487 C.ar      1 <0>        -0.0200
     18 C15        -0.0801   -3.8773   -0.9072 C.ar      1 <0>        -0.0166
     19 Cl1        -1.2774   -4.4929    0.1888 Cl        1 <0>        -0.0227
     20 Cl2        -0.8921   -5.8208   -2.6102 Cl        1 <0>         0.0033
     21 H2         -0.7304   -1.6146   -1.5146 H         1 <0>         0.0887
     22 H3         -1.0832    0.0403   -2.0670 H         1 <0>         0.1129
     23 H4          0.6041   -0.4983   -1.8907 H         1 <0>         0.0877
     24 H5         -0.2985    0.9945   -0.0083 H         1 <0>         0.1570
     25 H6         -1.7948   -1.5804    0.6597 H         1 <0>         0.0773
     26 H7         -1.7249   -0.1162    1.6694 H         1 <0>         0.0850
     27 H8         -2.5500   -0.0716    0.0928 H         1 <0>         0.1232
     28 H9         -0.1040   -0.2704    2.5696 H         1 <0>         0.1420
     29 H10         1.6478   -0.5857    2.5746 H         1 <0>         0.1173
     30 H11         0.7038    1.8681    1.0155 H         1 <0>         0.1388
     31 H12         3.1064    1.1913    2.9145 H         1 <0>         0.1069
     32 H13         2.9024    2.7396    1.9333 H         1 <0>         0.1203
     33 H14         0.7345    3.2287    3.1560 H         1 <0>         0.1225
     34 H15         0.9385    1.6804    4.1371 H         1 <0>         0.1095
     35 H16         1.6710   -3.7922    1.5727 H         1 <0>         0.1865
     36 H17         2.4586   -2.2028    1.7207 H         1 <0>         0.1649
     37 H18         1.5857   -3.0986    3.8061 H         1 <0>         0.4603
     38 H19         0.9531   -1.6277    3.4174 H         1 <0>         0.4277
     39 H20         2.2686   -1.4654   -1.1276 H         1 <0>         0.1388
     40 H21         2.5805   -2.5199   -3.3300 H         1 <0>         0.1628
     41 H22         1.1863   -4.4406   -3.9852 H         1 <0>         0.1659
     42 H23         0.0553   -2.9929    3.2048 H         1 <0>         0.4454
     43 H24         1.5828   -0.5289    0.1808 H         1 <0>         0.4328
@<TRIPOS>BOND
     1    1    2 1
     2    1   21 1
     3    1   22 1
     4    1   23 1
     5    2    3 1
     6    2    4 1
     7    2   24 1
     8    3   25 1
     9    3   26 1
    10    3   27 1
    11    4    5 1
    12    4    9 1
    13    4   43 1
    14    5    6 1
    15    5   28 1
    16    5   29 1
    17    6    8 1
    18    6    7 1
    19    6   30 1
    20    7    8 1
    21    7   31 1
    22    7   32 1
    23    8   33 1
    24    8   34 1
    25    9   10 1
    26    9   11 1
    27    9   13 1
    28   11   12 1
    29   11   35 1
    30   11   36 1
    31   12   37 1
    32   12   38 1
    33   12   42 1
    34   13   18 ar
    35   13   14 ar
    36   14   15 ar
    37   14   39 1
    38   15   16 ar
    39   15   40 1
    40   16   17 ar
    41   16   41 1
    42   17   18 ar
    43   17   20 1
    44   18   19 1
@<TRIPOS>MOLECULE
ZINC43254456
   41    42     0     0     0
SMALL
USER_CHARGES

@<TRIPOS>ATOM
      1 C1         -0.4653    1.5573   -1.8646 C.3       1 <0>        -0.1755
      2 C2         -0.2116    0.0691   -2.1136 C.3       1 <0>        -0.1541
      3 C3          0.6058   -0.5094   -0.9569 C.3       1 <0>         0.0146
      4 H1          0.1001   -0.3000   -0.0142 H         1 <0>         0.1595
      5 C4          0.7437   -2.0225   -1.1365 C.3       1 <0>         0.2273
      6 H2          1.2641   -2.2315   -2.0711 H         1 <0>         0.1603
      7 C5          1.5291   -2.5956    0.0149 C.2       1 <0>        -0.3187
      8 C6          2.7081   -3.2633   -0.0051 C.2       1 <0>        -0.0457
      9 C7          3.2504   -3.7028    1.1885 C.2       1 <0>        -0.1697
     10 C8          2.5854   -3.4522    2.3440 C.2       1 <0>        -0.0550
     11 S1          1.1514   -2.5639    1.7594 S.3       1 <0>         0.1378
     12 Cl1         3.0197   -3.8785    3.9699 Cl        1 <0>         0.0738
     13 N1         -0.5874   -2.6334   -1.1716 N.pl3     1 <0>        -0.4163
     14 C9         -1.5658   -2.5039   -0.2232 C.2       1 <0>         0.0078
     15 C10        -2.6205   -3.2241   -0.6504 C.2       1 <0>         0.0330
     16 N2         -2.2949   -3.7783   -1.8277 N.pl3     1 <0>        -0.4661
     17 C11        -1.0804   -3.4247   -2.1486 C.cat     1 <0>         0.3401
     18 C12        -0.3480   -3.8346   -3.4002 C.3       1 <0>        -0.0459
     19 C13        -0.7477   -5.2616   -3.7808 C.3       1 <0>        -0.1684
     20 C14        -0.7131   -2.8815   -4.5401 C.3       1 <0>        -0.1608
     21 N3          1.9397    0.1058   -0.9442 N.4       1 <0>        -0.6281
     22 H3         -1.0167    1.6809   -0.9326 H         1 <0>         0.0787
     23 H4          0.4878    2.0817   -1.7953 H         1 <0>         0.0627
     24 H5         -1.0476    1.9694   -2.6887 H         1 <0>         0.0951
     25 H6         -1.1647   -0.4553   -2.1830 H         1 <0>         0.1072
     26 H7          0.3398   -0.0545   -3.0457 H         1 <0>         0.1036
     27 H8          3.2165   -3.4497   -0.9395 H         1 <0>         0.1573
     28 H9          4.1886   -4.2376    1.2006 H         1 <0>         0.1670
     29 H10        -1.5038   -1.9339    0.6921 H         1 <0>         0.2218
     30 H11        -3.5632   -3.3358   -0.1354 H         1 <0>         0.2341
     31 H12         0.7266   -3.7935   -3.2224 H         1 <0>         0.1223
     32 H13        -1.8223   -5.3027   -3.9587 H         1 <0>         0.0712
     33 H14        -0.2180   -5.5581   -4.6861 H         1 <0>         0.1043
     34 H15        -0.4876   -5.9406   -2.9688 H         1 <0>         0.0767
     35 H16        -1.7878   -2.9227   -4.7179 H         1 <0>         0.0768
     36 H17        -0.4284   -1.8649   -4.2689 H         1 <0>         0.0653
     37 H18        -0.1834   -3.1780   -5.4454 H         1 <0>         0.1021
     38 H19         2.4078   -0.0881   -1.8168 H         1 <0>         0.4405
     39 H20         1.8488    1.1037   -0.8257 H         1 <0>         0.4518
     40 H21         2.4788   -0.2758   -0.1813 H         1 <0>         0.4422
     41 H22        -2.8725   -4.3488   -2.3586 H         1 <0>         0.4696
@<TRIPOS>BOND
     1    1    2 1
     2    1   22 1
     3    1   23 1
     4    1   24 1
     5    2    3 1
     6    2   25 1
     7    2   26 1
     8    3    4 1
     9    3    5 1
    10    3   21 1
    11    5    6 1
    12    5    7 1
    13    5   13 1
    14    7   11 1
    15    7    8 2
    16    8    9 1
    17    8   27 1
    18    9   10 2
    19    9   28 1
    20   10   11 1
    21   10   12 1
    22   13   17 1
    23   13   14 1
    24   14   15 2
    25   14   29 1
    26   15   16 1
    27   15   30 1
    28   16   17 2
    29   16   41 1
    30   17   18 1
    31   18   19 1
    32   18   20 1
    33   18   31 1
    34   19   32 1
    35   19   33 1
    36   19   34 1
    37   20   35 1
    38   20   36 1
    39   20   37 1
    40   21   38 1
    41   21   39 1
    42   21   40 1
@<TRIPOS>MOLECULE
ZINC52763406
   59    60     0     0     0
SMALL
USER_CHARGES

@<TRIPOS>ATOM
      1 C1          1.5117   -2.9149    2.6558 C.3       1 <0>        -0.1873
      2 C2          0.7464   -2.2623    1.5028 C.3       1 <0>         0.0220
      3 C3          1.4535   -2.5716    0.1817 C.3       1 <0>        -0.1876
      4 N1         -0.6227   -2.7931    1.4613 N.4       1 <0>        -0.5138
      5 C4         -1.3928   -2.0814    0.4324 C.3       1 <0>        -0.0092
      6 C5         -2.7858   -2.7036    0.3165 C.3       1 <0>        -0.1016
      7 C6         -3.5477   -2.0381   -0.8313 C.3       1 <0>        -0.1237
      8 C7         -3.6800   -0.5393   -0.5542 C.3       1 <0>        -0.1262
      9 C8         -4.4434   -0.3281    0.7548 C.3       1 <0>        -0.1321
     10 C9         -3.6815   -0.9936    1.9026 C.3       1 <0>        -0.1275
     11 C10        -3.5492   -2.4924    1.6255 C.3       1 <0>        -0.1620
     12 C11        -2.6534   -4.2025    0.0394 C.3       1 <0>        -0.0316
     13 N2         -3.9770   -4.7633   -0.2630 N.4       1 <0>        -0.3832
     14 C12        -4.8028   -4.7788    0.9632 C.3       1 <0>        -0.0226
     15 C13        -5.6414   -6.0771    0.8590 C.3       1 <0>        -0.1454
     16 C14        -4.6248   -7.0559    0.2145 C.3       1 <0>        -0.1378
     17 C15        -3.8302   -6.1480   -0.7477 C.3       1 <0>         0.0202
     18 H1         -4.2348   -6.2327   -1.7563 H         1 <0>         0.1491
     19 C16        -2.3535   -6.5482   -0.7406 C.3       1 <0>        -0.1371
     20 C17        -2.2059   -7.9635   -1.3028 C.3       1 <0>        -0.1272
     21 C18        -0.7476   -8.4104   -1.1830 C.3       1 <0>         0.0774
     22 O1         -0.6097   -9.7322   -1.7081 O.3       1 <0>        -0.5692
     23 H2          2.5276   -2.5210    2.6865 H         1 <0>         0.1148
     24 H3          1.0079   -2.6945    3.5969 H         1 <0>         0.0845
     25 H4          1.5447   -3.9939    2.5053 H         1 <0>         0.0819
     26 H5          0.7134   -1.1832    1.6532 H         1 <0>         0.1462
     27 H6          0.9084   -2.1067   -0.6398 H         1 <0>         0.0813
     28 H7          2.4694   -2.1778    0.2124 H         1 <0>         0.1147
     29 H8          1.4866   -3.6507    0.0312 H         1 <0>         0.0817
     30 H9         -0.5954   -3.7772    1.2404 H         1 <0>         0.4157
     31 H10        -1.4858   -1.0314    0.7096 H         1 <0>         0.1578
     32 H11        -0.8788   -2.1603   -0.5255 H         1 <0>         0.1488
     33 H12        -3.0038   -2.1886   -1.7638 H         1 <0>         0.0937
     34 H13        -4.5401   -2.4814   -0.9138 H         1 <0>         0.0773
     35 H14        -2.6877   -0.0960   -0.4716 H         1 <0>         0.0728
     36 H15        -4.2228   -0.0651   -1.3719 H         1 <0>         0.0898
     37 H16        -4.5377    0.7398    0.9522 H         1 <0>         0.0845
     38 H17        -5.4358   -0.7713    0.6723 H         1 <0>         0.0727
     39 H18        -2.6891   -0.5503    1.9852 H         1 <0>         0.0656
     40 H19        -4.2254   -0.8431    2.8352 H         1 <0>         0.0895
     41 H20        -4.5415   -2.9357    1.5430 H         1 <0>         0.1059
     42 H21        -3.0064   -2.9666    2.4433 H         1 <0>         0.0737
     43 H22        -1.9900   -4.3575   -0.8115 H         1 <0>         0.1507
     44 H23        -2.2403   -4.6992    0.9174 H         1 <0>         0.1266
     45 H24        -4.1674   -4.8075    1.8483 H         1 <0>         0.1339
     46 H25        -5.4559   -3.9065    0.9919 H         1 <0>         0.1456
     47 H26        -5.9466   -6.4250    1.8459 H         1 <0>         0.1237
     48 H27        -6.5072   -5.9319    0.2129 H         1 <0>         0.1050
     49 H28        -3.9678   -7.4831    0.9720 H         1 <0>         0.1027
     50 H29        -5.1422   -7.8416   -0.3360 H         1 <0>         0.1213
     51 H30        -1.7853   -5.8514   -1.3568 H         1 <0>         0.0886
     52 H31        -1.9749   -6.5218    0.2812 H         1 <0>         0.0859
     53 H32        -2.8426   -8.6462   -0.7400 H         1 <0>         0.0874
     54 H33        -2.5032   -7.9707   -2.3515 H         1 <0>         0.0867
     55 H34        -0.1110   -7.7276   -1.7458 H         1 <0>         0.0457
     56 H35        -0.4504   -8.4032   -0.1343 H         1 <0>         0.0452
     57 H36         0.2912  -10.0808   -1.6645 H         1 <0>         0.3947
     58 H37        -1.0615   -2.6622    2.3604 H         1 <0>         0.4296
     59 H38        -4.4309   -4.2028   -0.9687 H         1 <0>         0.4301
@<TRIPOS>BOND
     1    1    2 1
     2    1   23 1
     3    1   24 1
     4    1   25 1
     5    2    3 1
     6    2    4 1
     7    2   26 1
     8    3   27 1
     9    3   28 1
    10    3   29 1
    11    4    5 1
    12    4   30 1
    13    4   58 1
    14    5    6 1
    15    5   31 1
    16    5   32 1
    17    6   11 1
    18    6    7 1
    19    6   12 1
    20    7    8 1
    21    7   33 1
    22    7   34 1
    23    8    9 1
    24    8   35 1
    25    8   36 1
    26    9   10 1
    27    9   37 1
    28    9   38 1
    29   10   11 1
    30   10   39 1
    31   10   40 1
    32   11   41 1
    33   11   42 1
    34   12   13 1
    35   12   43 1
    36   12   44 1
    37   13   17 1
    38   13   14 1
    39   13   59 1
    40   14   15 1
    41   14   45 1
    42   14   46 1
    43   15   16 1
    44   15   47 1
    45   15   48 1
    46   16   17 1
    47   16   49 1
    48   16   50 1
    49   17   18 1
    50   17   19 1
    51   19   20 1
    52   19   51 1
    53   19   52 1
    54   20   21 1
    55   20   53 1
    56   20   54 1
    57   21   22 1
    58   21   55 1
    59   21   56 1
    60   22   57 1
@<TRIPOS>MOLECULE
ZINC58381152
   48    51     0     0     0
SMALL
USER_CHARGES

@<TRIPOS>ATOM
      1 C1         -0.0184    1.5028    0.0103 C.3       1 <0>        -0.1251
      2 C2          0.0021   -0.0041    0.0020 C.2       1 <0>         0.2667
      3 C3          0.0084   -0.8174   -1.1386 C.2       1 <0>        -0.2824
      4 C4          0.0271   -2.1029   -0.7237 C.2       1 <0>         0.4637
      5 N1          0.0343   -2.1043    0.6349 N.pl3     1 <0>        -0.3792
      6 N2          0.0226   -0.7769    1.0613 N.pl3     1 <0>        -0.3855
      7 C5          0.0583   -3.3228    1.4483 C.3       1 <0>         0.1219
      8 C6          0.5520   -4.4879    0.5831 C.3       1 <0>        -0.1524
      9 H1          1.6129   -4.3565    0.3699 H         1 <0>         0.1260
     10 C7         -0.2310   -4.5273   -0.7340 C.3       1 <0>         0.0922
     11 N3          0.0374   -3.2797   -1.4763 N.pl3     1 <0>        -0.6924
     12 C8          0.3441   -5.8037    1.3356 C.3       1 <0>        -0.0016
     13 N4          0.9247   -6.9082    0.5604 N.4       1 <0>        -0.5064
     14 C9          0.7250   -8.1716    1.2830 C.3       1 <0>         0.1194
     15 H2         -0.3352   -8.3027    1.4993 H         1 <0>         0.1510
     16 C10         1.2099   -9.3181    0.4337 C.ar      1 <0>        -0.1531
     17 C11         2.3730   -9.1894   -0.3024 C.ar      1 <0>        -0.1220
     18 C12         2.8178  -10.2411   -1.0814 C.ar      1 <0>        -0.1035
     19 C13         2.0998  -11.4216   -1.1241 C.ar      1 <0>        -0.0840
     20 C14         0.9373  -11.5506   -0.3874 C.ar      1 <0>        -0.1015
     21 C15         0.4948  -10.5004    0.3950 C.ar      1 <0>        -0.0852
     22 C16         1.5129   -8.1392    2.5941 C.3       1 <0>        -0.2164
     23 C17         2.7171   -9.0749    2.7179 C.3       1 <0>        -0.1658
     24 C18         1.4339   -9.3724    3.4963 C.3       1 <0>        -0.1398
     25 H3          1.0042    1.8801    0.0026 H         1 <0>         0.1249
     26 H4         -0.5455    1.8639   -0.8728 H         1 <0>         0.1268
     27 H5         -0.5286    1.8543    0.9071 H         1 <0>         0.1043
     28 H6         -0.0004   -0.4781   -2.1639 H         1 <0>         0.2009
     29 H7          0.7327   -3.1844    2.2934 H         1 <0>         0.1294
     30 H8         -0.9462   -3.5386    1.8123 H         1 <0>         0.1216
     31 H9          0.0923   -5.3829   -1.3269 H         1 <0>         0.1090
     32 H10        -1.2976   -4.6060   -0.5237 H         1 <0>         0.1046
     33 H11         0.2110   -3.2773   -2.4306 H         1 <0>         0.4518
     34 H12         0.8320   -5.7468    2.3086 H         1 <0>         0.1529
     35 H13        -0.7229   -5.9784    1.4739 H         1 <0>         0.1512
     36 H14         0.4730   -6.9609   -0.3403 H         1 <0>         0.4292
     37 H15         2.9339   -8.2671   -0.2690 H         1 <0>         0.1178
     38 H16         3.7260  -10.1403   -1.6570 H         1 <0>         0.1379
     39 H17         2.4470  -12.2430   -1.7334 H         1 <0>         0.1398
     40 H18         0.3762  -12.4728   -0.4211 H         1 <0>         0.1408
     41 H19        -0.4115  -10.6025    0.9735 H         1 <0>         0.1348
     42 H20         1.5803   -7.1650    3.0782 H         1 <0>         0.1258
     43 H21         2.9480   -9.7135    1.8653 H         1 <0>         0.1151
     44 H22         3.5771   -8.7162    3.2835 H         1 <0>         0.1098
     45 H23         1.4497   -9.2094    4.5740 H         1 <0>         0.1148
     46 H24         0.8206  -10.2067    3.1558 H         1 <0>         0.1086
     47 H25         1.9124   -6.7465    0.4324 H         1 <0>         0.4299
     48 H26         0.0266   -0.4765    1.9836 H         1 <0>         0.4736
@<TRIPOS>BOND
     1    1    2 1
     2    1   25 1
     3    1   26 1
     4    1   27 1
     5    2    6 2
     6    2    3 1
     7    3    4 2
     8    3   28 1
     9    4   11 1
    10    4    5 1
    11    5    6 1
    12    5    7 1
    13    6   48 1
    14    7    8 1
    15    7   29 1
    16    7   30 1
    17    8    9 1
    18    8   10 1
    19    8   12 1
    20   10   11 1
    21   10   31 1
    22   10   32 1
    23   11   33 1
    24   12   13 1
    25   12   34 1
    26   12   35 1
    27   13   14 1
    28   13   36 1
    29   13   47 1
    30   14   15 1
    31   14   16 1
    32   14   22 1
    33   16   21 ar
    34   16   17 ar
    35   17   18 ar
    36   17   37 1
    37   18   19 ar
    38   18   38 1
    39   19   20 ar
    40   19   39 1
    41   20   21 ar
    42   20   40 1
    43   21   41 1
    44   22   24 1
    45   22   23 1
    46   22   42 1
    47   23   24 1
    48   23   43 1
    49   23   44 1
    50   24   45 1
    51   24   46 1
@<TRIPOS>MOLECULE
ZINC12362084
   47    47     0     0     0
SMALL
USER_CHARGES
N-[(Z)-3-amino-2-cyano-1,1-bis(trifluoromethyl)but-2-enyl]-3-cyclohexyl-propanamide
@<TRIPOS>ATOM
      1 C1         -2.1935    1.7975   -0.9243 C.3       1 <0>        -0.1819
      2 C2         -0.7413    1.3950   -0.9179 C.2       1 <0>         0.3298
      3 C3         -0.0299    1.4572    0.2250 C.2       1 <0>        -0.2904
      4 C4          1.3970    1.3427    0.1872 C.1       1 <0>         0.2598
      5 N1          2.5290    1.2519    0.1573 N.1       1 <0>        -0.4278
      6 C5         -0.7360    1.6473    1.5427 C.3       1 <0>         0.1977
      7 C6          0.0582    0.9540    2.6515 C.3       1 <0>         0.4450
      8 F1         -0.6667    1.0065    3.8469 F         1 <0>        -0.1699
      9 F2          1.2858    1.6030    2.8216 F         1 <0>        -0.1675
     10 F3          0.2816   -0.3816    2.2999 F         1 <0>        -0.1374
     11 C7         -0.8454    3.1417    1.8517 C.3       1 <0>         0.4569
     12 F4          0.4334    3.7087    1.8714 F         1 <0>        -0.1528
     13 F5         -1.6174    3.7664    0.8663 F         1 <0>        -0.1593
     14 F6         -1.4523    3.3166    3.1001 F         1 <0>        -0.1660
     15 N2         -2.0781    1.0649    1.4660 N.am      1 <0>        -0.7410
     16 C8         -2.2352   -0.2180    1.0839 C.2       1 <0>         0.5090
     17 O1         -1.2627   -0.9124    0.8767 O.2       1 <0>        -0.4808
     18 C9         -3.6192   -0.7895    0.9142 C.3       1 <0>        -0.1406
     19 C10        -3.5169   -2.2526    0.4784 C.3       1 <0>        -0.1010
     20 C11        -4.9221   -2.8329    0.3061 C.3       1 <0>        -0.0859
     21 C12        -5.6312   -2.8629    1.6616 C.3       1 <0>        -0.1187
     22 C13        -7.0363   -3.4432    1.4893 C.3       1 <0>        -0.1209
     23 C14        -6.9362   -4.8655    0.9344 C.3       1 <0>        -0.1225
     24 C15        -6.2272   -4.8355   -0.4210 C.3       1 <0>        -0.1207
     25 C16        -4.8220   -4.2552   -0.2487 C.3       1 <0>        -0.1153
     26 N3         -0.1441    0.9655   -2.0744 N.pl3     1 <0>        -0.8467
     27 H1         -2.6020    1.6802   -1.9389 H         1 <0>         0.0774
     28 H2         -2.2841    2.8482   -0.6117 H         1 <0>         0.1148
     29 H3         -2.7543    1.1578   -0.2270 H         1 <0>         0.1132
     30 H4         -2.9576    1.6747    1.7203 H         1 <0>         0.4430
     31 H5         -4.1608   -0.7285    1.8697 H         1 <0>         0.1043
     32 H6         -4.1614   -0.2158    0.1482 H         1 <0>         0.1006
     33 H7         -2.9753   -2.3135   -0.4771 H         1 <0>         0.0717
     34 H8         -2.9747   -2.8263    1.2444 H         1 <0>         0.0735
     35 H9         -5.4945   -2.2060   -0.3934 H         1 <0>         0.0713
     36 H10        -5.0588   -3.4899    2.3610 H         1 <0>         0.0635
     37 H11        -5.7032   -1.8403    2.0605 H         1 <0>         0.0630
     38 H12        -7.5461   -3.4648    2.4638 H         1 <0>         0.0612
     39 H13        -7.6088   -2.8162    0.7899 H         1 <0>         0.0612
     40 H14        -6.3638   -5.4925    1.6338 H         1 <0>         0.0614
     41 H15        -7.9464   -5.2827    0.8106 H         1 <0>         0.0603
     42 H16        -6.1553   -5.8581   -0.8199 H         1 <0>         0.0611
     43 H17        -6.7996   -4.2085   -1.1205 H         1 <0>         0.0610
     44 H18        -4.3122   -4.2336   -1.2232 H         1 <0>         0.0618
     45 H19        -4.2496   -4.8822    0.4507 H         1 <0>         0.0632
     46 H20         0.9159    0.6717   -2.0697 H         1 <0>         0.4301
     47 H21        -0.7248    0.9146   -3.0072 H         1 <0>         0.4314
@<TRIPOS>BOND
     1    1    2 1
     2    1   27 1
     3    1   28 1
     4    1   29 1
     5    2    3 2
     6    2   26 1
     7    3    4 1
     8    3    6 1
     9    4    5 3
    10    6    7 1
    11    6   11 1
    12    6   15 1
    13    7    8 1
    14    7    9 1
    15    7   10 1
    16   11   12 1
    17   11   13 1
    18   11   14 1
    19   15   16 am
    20   15   30 1
    21   16   17 2
    22   16   18 1
    23   18   19 1
    24   18   31 1
    25   18   32 1
    26   19   20 1
    27   19   33 1
    28   19   34 1
    29   20   25 1
    30   20   21 1
    31   20   35 1
    32   21   22 1
    33   21   36 1
    34   21   37 1
    35   22   23 1
    36   22   38 1
    37   22   39 1
    38   23   24 1
    39   23   40 1
    40   23   41 1
    41   24   25 1
    42   24   42 1
    43   24   43 1
    44   25   44 1
    45   25   45 1
    46   26   46 1
    47   26   47 1
@<TRIPOS>MOLECULE
ZINC08680913
   32    33     0     0     0
SMALL
USER_CHARGES

@<TRIPOS>ATOM
      1 C1          1.1519   -0.0693    3.0569 C.ar      1 <0>        -0.0874
      2 C2          2.2390    0.7620    2.8579 C.ar      1 <0>        -0.1157
      3 C3          2.9950    0.6531    1.7053 C.ar      1 <0>        -0.1175
      4 C4          2.6657   -0.2888    0.7476 C.ar      1 <0>         0.0580
      5 C5          1.5733   -1.1260    0.9459 C.ar      1 <0>         0.1540
      6 C6          0.8172   -1.0124    2.1046 C.ar      1 <0>        -0.1276
      7 N1          1.2361   -2.0807   -0.0212 N.pl3     1 <0>        -0.6892
      8 C7          0.0680   -2.7838    0.0898 C.cat     1 <0>         0.5213
      9 N2          0.0973   -4.1468    0.1848 N.pl3     1 <0>        -0.4424
     10 N3          1.3236   -4.8240    0.1684 N.pl3     1 <0>        -0.5241
     11 C8          1.3534   -6.2109    0.2650 C.ar      1 <0>         0.4376
     12 C9          2.5759   -6.8775    0.2538 C.ar      1 <0>        -0.1483
     13 C10         2.5901   -8.2578    0.3512 C.ar      1 <0>         0.0357
     14 C11         1.3778   -8.9272    0.4567 C.ar      1 <0>        -0.2793
     15 C12         0.2034   -8.2024    0.4615 C.ar      1 <0>         0.2215
     16 N4          0.2196   -6.8856    0.3723 N.ar      1 <0>        -0.5231
     17 C13         1.3451  -10.4299    0.5645 C.3       1 <0>         0.5241
     18 F1          1.3981  -10.8021    1.9121 F         1 <0>        -0.1711
     19 F2          0.1627  -10.9128   -0.0064 F         1 <0>        -0.1712
     20 F3          2.4441  -10.9700   -0.1120 F         1 <0>        -0.1729
     21 Cl1         4.0613   -5.9893    0.1191 Cl        1 <0>        -0.0320
     22 S1         -1.3850   -1.9814    0.1093 S.3       1 <0>        -0.4349
     23 F4          3.4040   -0.3951   -0.3788 F         1 <0>        -0.1383
     24 H1          0.5663    0.0160    3.9603 H         1 <0>         0.1369
     25 H2          2.4979    1.4982    3.6045 H         1 <0>         0.1374
     26 H3          3.8429    1.3043    1.5526 H         1 <0>         0.1425
     27 H4         -0.0319   -1.6611    2.2615 H         1 <0>         0.1384
     28 H5         -0.7311   -4.6454    0.2636 H         1 <0>         0.4581
     29 H6          2.1519   -4.3254    0.0896 H         1 <0>         0.4409
     30 H7          3.5229   -8.8022    0.3449 H         1 <0>         0.1665
     31 H8         -0.7414   -8.7193    0.5434 H         1 <0>         0.1854
     32 H9          1.8308   -2.2436   -0.7700 H         1 <0>         0.4167
@<TRIPOS>BOND
     1    1    6 ar
     2    1    2 ar
     3    1   24 1
     4    2    3 ar
     5    2   25 1
     6    3    4 ar
     7    3   26 1
     8    4    5 ar
     9    4   23 1
    10    5    6 ar
    11    5    7 1
    12    6   27 1
    13    7    8 1
    14    7   32 1
    15    8    9 2
    16    8   22 1
    17    9   10 1
    18    9   28 1
    19   10   11 1
    20   10   29 1
    21   11   16 ar
    22   11   12 ar
    23   12   13 ar
    24   12   21 1
    25   13   14 ar
    26   13   30 1
    27   14   15 ar
    28   14   17 1
    29   15   16 ar
    30   15   31 1
    31   17   18 1
    32   17   19 1
    33   17   20 1
@<TRIPOS>MOLECULE
ZINC49127077
   38    39     0     0     0
SMALL
USER_CHARGES

@<TRIPOS>ATOM
      1 C1         -0.0187    1.5258    0.0104 C.3       1 <0>        -0.1493
      2 C2          0.0021   -0.0041    0.0020 C.3       1 <0>        -0.0867
      3 C3         -1.4117   -0.5257    0.0127 C.ar      1 <0>        -0.1025
      4 C4         -2.0149   -0.8638    1.2084 C.ar      1 <0>        -0.0898
      5 C5         -3.3118   -1.3430    1.2191 C.ar      1 <0>        -0.0712
      6 C6         -4.0097   -1.4849    0.0335 C.ar      1 <0>        -0.6325
      7 C7         -3.4129   -1.1483   -1.1654 C.ar      1 <0>        -0.1032
      8 C8         -2.1117   -0.6616   -1.1792 C.ar      1 <0>         0.2028
      9 N1         -1.5068   -0.3152   -2.3896 N.pl3     1 <0>        -0.8752
     10 S1         -5.6621   -2.0965    0.0527 S.o2      1 <0>         2.6926
     11 O1         -5.9051   -2.6504   -1.2331 O.2       1 <0>        -0.9500
     12 O2         -5.8009   -2.8538    1.2471 O.2       1 <0>        -0.9515
     13 N2         -6.6666   -0.7885    0.2022 N.pl3     1 <0>        -1.1134
     14 C9         -6.7334    0.2099   -0.8679 C.3       1 <0>         0.2411
     15 H1         -5.8019    0.1987   -1.4338 H         1 <0>         0.1072
     16 C10        -7.9007   -0.1194   -1.8005 C.3       1 <0>        -0.1725
     17 C11        -6.9401    1.5766   -0.2676 C.2       1 <0>        -0.1485
     18 C12        -6.3908    2.7605   -0.6322 C.2       1 <0>        -0.1386
     19 C13        -6.7295    3.9020    0.0709 C.2       1 <0>        -0.1360
     20 C14        -7.6019    3.8020    1.1049 C.2       1 <0>        -0.1195
     21 S2         -7.9780    2.0568    1.1032 S.3       1 <0>         0.1054
     22 Cl1        -8.2020    5.0488    2.1533 Cl        1 <0>         0.0202
     23 H2          1.0039    1.9031    0.0027 H         1 <0>         0.0615
     24 H3         -0.5459    1.8868   -0.8726 H         1 <0>         0.0554
     25 H4         -0.5289    1.8773    0.9072 H         1 <0>         0.0590
     26 H5          0.5123   -0.3556   -0.8948 H         1 <0>         0.0706
     27 H6          0.5293   -0.3651    0.8851 H         1 <0>         0.0789
     28 H7         -1.4727   -0.7542    2.1360 H         1 <0>         0.1322
     29 H8         -3.7809   -1.6073    2.1553 H         1 <0>         0.1376
     30 H9         -3.9583   -1.2597   -2.0909 H         1 <0>         0.1381
     31 H10        -0.5968    0.0207   -2.3983 H         1 <0>         0.4007
     32 H11        -1.9966   -0.4105   -3.2213 H         1 <0>         0.4011
     33 H12        -7.2108   -0.6833    0.9982 H         1 <0>         0.4200
     34 H13        -7.9504    0.6234   -2.5967 H         1 <0>         0.0758
     35 H14        -7.7512   -1.1080   -2.2347 H         1 <0>         0.0846
     36 H15        -8.8322   -0.1082   -1.2345 H         1 <0>         0.0684
     37 H16        -5.6985    2.8117   -1.4595 H         1 <0>         0.1433
     38 H17        -6.3059    4.8581   -0.1988 H         1 <0>         0.1441
@<TRIPOS>BOND
     1    1    2 1
     2    1   23 1
     3    1   24 1
     4    1   25 1
     5    2    3 1
     6    2   26 1
     7    2   27 1
     8    3    8 ar
     9    3    4 ar
    10    4    5 ar
    11    4   28 1
    12    5    6 ar
    13    5   29 1
    14    6    7 ar
    15    6   10 1
    16    7    8 ar
    17    7   30 1
    18    8    9 1
    19    9   31 1
    20    9   32 1
    21   10   11 2
    22   10   12 2
    23   10   13 1
    24   13   14 1
    25   13   33 1
    26   14   15 1
    27   14   16 1
    28   14   17 1
    29   16   34 1
    30   16   35 1
    31   16   36 1
    32   17   21 1
    33   17   18 2
    34   18   19 1
    35   18   37 1
    36   19   20 2
    37   19   38 1
    38   20   21 1
    39   20   22 1
@<TRIPOS>MOLECULE
ZINC66122081
   38    38     0     0     0
SMALL
USER_CHARGES

@<TRIPOS>ATOM
      1 C1          0.0075    1.5258    0.0220 C.3       1 <0>        -0.1598
      2 C2          0.0021   -0.0041    0.0020 C.3       1 <0>         0.1788
      3 H1          0.4510   -0.3810    0.9210 H         1 <0>         0.1407
      4 C3         -1.4170   -0.5001   -0.1040 C.ar      1 <0>        -0.0835
      5 C4         -1.9650   -0.7668   -1.3449 C.ar      1 <0>        -0.0990
      6 C5         -3.2663   -1.2216   -1.4429 C.ar      1 <0>        -0.0963
      7 C6         -4.0214   -1.4108   -0.2988 C.ar      1 <0>        -0.0226
      8 C7         -3.4736   -1.1446    0.9429 C.ar      1 <0>        -0.0926
      9 C8         -2.1692   -0.6938    1.0407 C.ar      1 <0>        -0.0132
     10 Cl1        -1.4788   -0.3651    2.5992 Cl        1 <0>        -0.0348
     11 Cl2        -5.6562   -1.9817   -0.4222 Cl        1 <0>        -0.0474
     12 N1          0.7731   -0.4801   -1.1491 N.pl3     1 <0>        -0.6828
     13 C9          2.1052   -0.6545   -1.0424 C.2       1 <0>         0.5616
     14 S1          2.8965   -0.3195    0.4384 S.2       1 <0>        -0.5760
     15 N2          2.8145   -1.0924   -2.1015 N.pl3     1 <0>        -0.4693
     16 N3          2.1670   -1.3665   -3.3132 N.am      1 <0>        -0.5507
     17 C10         2.8763   -1.8045   -4.3723 C.2       1 <0>         0.5260
     18 O1          4.0751   -1.9613   -4.2762 O.2       1 <0>        -0.5144
     19 C11         2.1799   -2.0993   -5.6758 C.3       1 <0>        -0.1138
     20 C12         3.2057   -2.5774   -6.7054 C.3       1 <0>        -0.0755
     21 S2          2.3673   -2.9323   -8.2744 S.3       1 <0>        -0.2598
     22 C13         3.7037   -3.4798   -9.3720 C.3       1 <0>        -0.1176
     23 H2          1.0339    1.8845    0.0987 H         1 <0>         0.0840
     24 H3         -0.4415    1.9027   -0.8970 H         1 <0>         0.0595
     25 H4         -0.5662    1.8800    0.8785 H         1 <0>         0.0803
     26 H5         -1.3760   -0.6193   -2.2380 H         1 <0>         0.1313
     27 H6         -3.6940   -1.4292   -2.4126 H         1 <0>         0.1454
     28 H7         -4.0626   -1.2921    1.8361 H         1 <0>         0.1511
     29 H8          0.3248   -0.6699   -1.9881 H         1 <0>         0.3893
     30 H9          3.7733   -1.2179   -2.0246 H         1 <0>         0.4605
     31 H10         1.2083   -1.2410   -3.3901 H         1 <0>         0.4197
     32 H11         1.4317   -2.8766   -5.5203 H         1 <0>         0.1141
     33 H12         1.6935   -1.1946   -6.0405 H         1 <0>         0.1141
     34 H13         3.9538   -1.8001   -6.8608 H         1 <0>         0.0934
     35 H14         3.6920   -3.4821   -6.3406 H         1 <0>         0.0934
     36 H15         3.2932   -3.7193  -10.3529 H         1 <0>         0.1061
     37 H16         4.4414   -2.6835   -9.4715 H         1 <0>         0.0798
     38 H17         4.1797   -4.3655   -8.9512 H         1 <0>         0.0798
@<TRIPOS>BOND
     1    1    2 1
     2    1   23 1
     3    1   24 1
     4    1   25 1
     5    2    3 1
     6    2    4 1
     7    2   12 1
     8    4    9 ar
     9    4    5 ar
    10    5    6 ar
    11    5   26 1
    12    6    7 ar
    13    6   27 1
    14    7    8 ar
    15    7   11 1
    16    8    9 ar
    17    8   28 1
    18    9   10 1
    19   12   13 1
    20   12   29 1
    21   13   14 2
    22   13   15 1
    23   15   16 1
    24   15   30 1
    25   16   17 am
    26   16   31 1
    27   17   18 2
    28   17   19 1
    29   19   20 1
    30   19   32 1
    31   19   33 1
    32   20   21 1
    33   20   34 1
    34   20   35 1
    35   21   22 1
    36   22   36 1
    37   22   37 1
    38   22   38 1
@<TRIPOS>MOLECULE
ZINC67632591
   47    49     0     0     0
SMALL
USER_CHARGES

@<TRIPOS>ATOM
      1 C1         -0.0184    1.5028    0.0103 C.3       1 <0>        -0.0731
      2 C2          0.0021   -0.0041    0.0020 C.2       1 <0>        -0.1332
      3 C3         -1.0392   -0.8719    0.0017 C.2       1 <0>        -0.1646
      4 C4         -0.7802   -2.2296   -0.0075 C.2       1 <0>        -0.1349
      5 C5          0.5074   -2.6532   -0.0160 C.2       1 <0>        -0.1636
      6 S1          1.4039   -1.1093   -0.0179 S.3       1 <0>         0.0369
      7 C6          1.0430   -4.0617   -0.0269 C.3       1 <0>         0.2504
      8 H1          0.2679   -4.7425   -0.3788 H         1 <0>         0.1096
      9 C7          1.4651   -4.4578    1.3894 C.3       1 <0>        -0.1605
     10 N1          2.2014   -4.1368   -0.9206 N.am      1 <0>        -0.7415
     11 C8          2.5393   -5.3113   -1.4887 C.2       1 <0>         0.7081
     12 O1          1.8826   -6.3086   -1.2596 O.2       1 <0>        -0.5868
     13 N2          3.6049   -5.3804   -2.3109 N.am      1 <0>        -0.7409
     14 C9          3.9721   -6.6571   -2.9285 C.3       1 <0>         0.1123
     15 C10         5.2083   -6.4611   -3.8085 C.3       1 <0>         0.1390
     16 H2          5.0177   -5.6676   -4.5311 H         1 <0>         0.1153
     17 C11         5.5132   -7.7434   -4.5392 C.ar      1 <0>        -0.1148
     18 C12         6.1804   -8.7705   -3.8740 C.ar      1 <0>        -0.1081
     19 C13         6.4714   -9.9408   -4.5048 C.ar      1 <0>        -0.0983
     20 C14         6.0944  -10.1198   -5.8467 C.ar      1 <0>        -0.0498
     21 C15         6.3771  -11.3143   -6.5311 C.ar      1 <0>        -0.1070
     22 C16         5.9964  -11.4522   -7.8305 C.ar      1 <0>        -0.1135
     23 C17         5.3289  -10.4252   -8.4955 C.ar      1 <0>        -0.1145
     24 C18         5.0384   -9.2547   -7.8648 C.ar      1 <0>        -0.1056
     25 C19         5.4156   -9.0756   -6.5230 C.ar      1 <0>        -0.0508
     26 C20         5.1280   -7.8832   -5.8369 C.ar      1 <0>        -0.0882
     27 O2          6.3235   -6.1024   -2.9902 O.3       1 <0>        -0.5497
     28 H3          1.0042    1.8801    0.0026 H         1 <0>         0.0733
     29 H4         -0.5455    1.8639   -0.8728 H         1 <0>         0.0823
     30 H5         -0.5286    1.8543    0.9071 H         1 <0>         0.0827
     31 H6         -2.0560   -0.5079    0.0090 H         1 <0>         0.1354
     32 H7         -1.5916   -2.9424   -0.0076 H         1 <0>         0.1354
     33 H8          2.2402   -3.7770    1.7413 H         1 <0>         0.0601
     34 H9          0.6032   -4.4019    2.0544 H         1 <0>         0.0714
     35 H10         1.8525   -5.4765    1.3816 H         1 <0>         0.0713
     36 H11         2.7253   -3.3411   -1.1034 H         1 <0>         0.3963
     37 H12         4.1288   -4.5847   -2.4937 H         1 <0>         0.4010
     38 H13         4.1926   -7.3873   -2.1498 H         1 <0>         0.0732
     39 H14         3.1443   -7.0164   -3.5397 H         1 <0>         0.0791
     40 H15         6.4712   -8.6355   -2.8427 H         1 <0>         0.1223
     41 H16         6.9896  -10.7277   -3.9769 H         1 <0>         0.1304
     42 H17         6.8940  -12.1186   -6.0287 H         1 <0>         0.1284
     43 H18         6.2151  -12.3710   -8.3542 H         1 <0>         0.1247
     44 H19         5.0381  -10.5601   -9.5268 H         1 <0>         0.1248
     45 H20         4.5209   -8.4675   -8.3929 H         1 <0>         0.1282
     46 H21         4.6075   -7.0806   -6.3382 H         1 <0>         0.1297
     47 H22         6.5505   -6.7641   -2.3226 H         1 <0>         0.3779
@<TRIPOS>BOND
     1    1    2 1
     2    1   28 1
     3    1   29 1
     4    1   30 1
     5    2    6 1
     6    2    3 2
     7    3    4 1
     8    3   31 1
     9    4    5 2
    10    4   32 1
    11    5    6 1
    12    5    7 1
    13    7    8 1
    14    7    9 1
    15    7   10 1
    16    9   33 1
    17    9   34 1
    18    9   35 1
    19   10   11 am
    20   10   36 1
    21   11   12 2
    22   11   13 am
    23   13   14 1
    24   13   37 1
    25   14   15 1
    26   14   38 1
    27   14   39 1
    28   15   16 1
    29   15   17 1
    30   15   27 1
    31   17   26 ar
    32   17   18 ar
    33   18   19 ar
    34   18   40 1
    35   19   20 ar
    36   19   41 1
    37   20   25 ar
    38   20   21 ar
    39   21   22 ar
    40   21   42 1
    41   22   23 ar
    42   22   43 1
    43   23   24 ar
    44   23   44 1
    45   24   25 ar
    46   24   45 1
    47   25   26 ar
    48   26   46 1
    49   27   47 1
@<TRIPOS>MOLECULE
ZINC32088967
   53    53     0     0     0
SMALL
USER_CHARGES
(1R)-1-(3-chloro-5-ethoxy-4-methoxy-phenyl)-N,N-dipropyl-ethane-1,2-diamine
@<TRIPOS>ATOM
      1 C1          1.9191    1.5606    0.3237 C.3       1 <0>        -0.1649
      2 C2          0.7094    0.9526   -0.3890 C.3       1 <0>        -0.1527
      3 C3          0.6696    1.4456   -1.8369 C.3       1 <0>        -0.0527
      4 N1         -0.4918    0.8619   -2.5212 N.4       1 <0>        -0.4115
      5 C4         -0.2617   -0.5550   -2.8332 C.3       1 <0>        -0.0296
      6 C5         -1.5980   -1.2326   -3.1431 C.3       1 <0>        -0.1427
      7 C6         -1.3752   -2.7333   -3.3408 C.3       1 <0>        -0.1618
      8 C7         -0.8244    1.6207   -3.7342 C.3       1 <0>         0.0665
      9 H1         -1.8965    1.4775   -3.9345 H         1 <0>         0.1711
     10 C8         -0.5007    3.1000   -3.5152 C.3       1 <0>        -0.0238
     11 N2         -1.2165    3.5873   -2.3285 N.4       1 <0>        -0.7053
     12 C9         -0.0159    1.0958   -4.8926 C.ar      1 <0>        -0.1139
     13 C10        -0.6403    0.7936   -6.0888 C.ar      1 <0>        -0.1652
     14 C11         0.1013    0.3118   -7.1554 C.ar      1 <0>         0.1502
     15 C12         1.4745    0.1324   -7.0198 C.ar      1 <0>         0.1195
     16 C13         2.0947    0.4367   -5.8180 C.ar      1 <0>        -0.0187
     17 C14         1.3488    0.9230   -4.7587 C.ar      1 <0>        -0.1496
     18 Cl1         3.8076    0.2145   -5.6442 Cl        1 <0>        -0.0038
     19 O1          2.2065   -0.3408   -8.0640 O.3       1 <0>        -0.3120
     20 C15         2.7511    0.6253   -8.9652 C.3       1 <0>         0.0304
     21 O2         -0.5117    0.0151   -8.3326 O.3       1 <0>        -0.2841
     22 C16        -1.9237    0.2245   -8.3996 C.3       1 <0>         0.0499
     23 C17        -2.4310   -0.1616   -9.7904 C.3       1 <0>        -0.1634
     24 H2          1.9477    1.2062    1.3646 H         1 <0>         0.0901
     25 H3          1.8384    2.6576    0.3119 H         1 <0>         0.0667
     26 H4          2.8408    1.2552   -0.1931 H         1 <0>         0.0750
     27 H5          0.7901   -0.1444   -0.3772 H         1 <0>         0.1026
     28 H6         -0.2124    1.2580    0.1278 H         1 <0>         0.0910
     29 H7          0.5889    2.5426   -1.8486 H         1 <0>         0.1178
     30 H8          1.5914    1.1402   -2.3537 H         1 <0>         0.1555
     31 H9          0.4013   -0.6350   -3.7073 H         1 <0>         0.1481
     32 H10         0.2084   -1.0489   -1.9700 H         1 <0>         0.1445
     33 H11        -2.2932   -1.0723   -2.3059 H         1 <0>         0.0869
     34 H12        -2.0238   -0.8011   -4.0610 H         1 <0>         0.0832
     35 H13        -2.3360   -3.2204   -3.5636 H         1 <0>         0.0837
     36 H14        -0.9495   -3.1648   -2.4229 H         1 <0>         0.0718
     37 H15        -0.6800   -2.8936   -4.1780 H         1 <0>         0.0697
     38 H16         0.5824    3.2200   -3.3652 H         1 <0>         0.1598
     39 H17        -0.8151    3.6785   -4.3964 H         1 <0>         0.1828
     40 H18        -0.9838    4.6508   -2.1710 H         1 <0>         0.4867
     41 H19        -0.9020    3.0087   -1.4474 H         1 <0>         0.4413
     42 H20        -1.7062    0.9336   -6.1918 H         1 <0>         0.1526
     43 H21         1.8335    1.1643   -3.8242 H         1 <0>         0.1417
     44 H22         3.3158    0.1109   -9.7567 H         1 <0>         0.1157
     45 H23         3.4227    1.3015   -8.4159 H         1 <0>         0.0549
     46 H24         1.9340    1.2071   -9.4167 H         1 <0>         0.0573
     47 H25        -2.4229   -0.3970   -7.6416 H         1 <0>         0.0690
     48 H26        -2.1466    1.2847   -8.2092 H         1 <0>         0.0679
     49 H27        -3.5179   -0.0004   -9.8420 H         1 <0>         0.0908
     50 H28        -2.2081   -1.2218   -9.9807 H         1 <0>         0.0763
     51 H29        -1.9317    0.4599  -10.5484 H         1 <0>         0.0749
     52 H30        -1.3520    0.9223   -1.8383 H         1 <0>         0.4396
     53 H31        -2.2996    3.4672   -2.4786 H         1 <0>         0.4705
@<TRIPOS>BOND
     1    1    2 1
     2    1   24 1
     3    1   25 1
     4    1   26 1
     5    2    3 1
     6    2   27 1
     7    2   28 1
     8    3    4 1
     9    3   29 1
    10    3   30 1
    11    4    5 1
    12    4    8 1
    13    4   52 1
    14    5    6 1
    15    5   31 1
    16    5   32 1
    17    6    7 1
    18    6   33 1
    19    6   34 1
    20    7   35 1
    21    7   36 1
    22    7   37 1
    23    8    9 1
    24    8   10 1
    25    8   12 1
    26   10   11 1
    27   10   38 1
    28   10   39 1
    29   11   40 1
    30   11   41 1
    31   11   53 1
    32   12   17 ar
    33   12   13 ar
    34   13   14 ar
    35   13   42 1
    36   14   15 ar
    37   14   21 1
    38   15   16 ar
    39   15   19 1
    40   16   17 ar
    41   16   18 1
    42   17   43 1
    43   19   20 1
    44   20   44 1
    45   20   45 1
    46   20   46 1
    47   21   22 1
    48   22   23 1
    49   22   47 1
    50   22   48 1
    51   23   49 1
    52   23   50 1
    53   23   51 1
@<TRIPOS>MOLECULE
ZINC39943399
   61    63     0     0     0
SMALL
USER_CHARGES

@<TRIPOS>ATOM
      1 C1         13.4716   -2.0546   -2.8439 C.2       1 <0>        -0.1708
      2 C2         12.3883   -1.3644   -2.3331 C.2       1 <0>        -0.1182
      3 C3         12.4597   -0.0151   -2.2260 C.2       1 <0>        -0.1828
      4 S1         14.0954    0.3195   -2.8583 S.3       1 <0>         0.0611
      5 C4         14.5732   -1.3616   -3.2226 C.2       1 <0>        -0.1475
      6 C5         11.4263    0.9518   -1.7080 C.3       1 <0>         0.1556
      7 O1         11.6052    1.1320   -0.3017 O.3       1 <0>        -0.3681
      8 C6         10.6707    2.0355    0.2920 C.3       1 <0>         0.0302
      9 C7         10.9549    2.1510    1.7909 C.3       1 <0>         0.0849
     10 H1         10.9448    1.1580    2.2402 H         1 <0>         0.1343
     11 C8          9.8801    3.0191    2.4483 C.3       1 <0>        -0.0483
     12 N1         10.1529    3.1301    3.8875 N.4       1 <0>        -0.5167
     13 C9          9.1209    3.9635    4.5187 C.3       1 <0>        -0.0360
     14 C10         9.3478    3.9978    6.0314 C.3       1 <0>         0.0364
     15 C11         8.2003    4.7555    6.7022 C.3       1 <0>        -0.1332
     16 C12         8.1489    6.1859    6.1617 C.3       1 <0>        -0.1239
     17 C13         9.4719    6.8928    6.4631 C.3       1 <0>        -0.1374
     18 C14        10.6194    6.1351    5.7923 C.3       1 <0>        -0.1221
     19 C15        10.6708    4.7047    6.3328 C.3       1 <0>        -0.1518
     20 N2          9.3972    2.6244    6.5503 N.4       1 <0>        -0.3913
     21 C16         8.1479    1.9308    6.2144 C.3       1 <0>        -0.0289
     22 C17         8.2265    0.4757    6.6814 C.3       1 <0>        -0.1459
     23 C18         8.4386    0.4428    8.1977 C.3       1 <0>        -0.1428
     24 C19         9.7044    1.2324    8.5434 C.3       1 <0>        -0.1467
     25 C20         9.5711    2.6594    8.0074 C.3       1 <0>        -0.0156
     26 O2         12.2372    2.7501    1.9879 O.3       1 <0>        -0.5430
     27 H2         13.4423   -3.1303   -2.9357 H         1 <0>         0.1409
     28 H3         11.4982   -1.8924   -2.0243 H         1 <0>         0.1332
     29 H4         15.4998   -1.7307   -3.6369 H         1 <0>         0.1928
     30 H5         11.5395    1.9103   -2.2144 H         1 <0>         0.0718
     31 H6         10.4293    0.5551   -1.8995 H         1 <0>         0.0784
     32 H7         10.7682    3.0165   -0.1730 H         1 <0>         0.0695
     33 H8          9.6580    1.6613    0.1419 H         1 <0>         0.0727
     34 H9          9.8901    4.0122    1.9990 H         1 <0>         0.1531
     35 H10         8.9019    2.5622    2.2981 H         1 <0>         0.1551
     36 H11        10.1436    2.2108    4.3034 H         1 <0>         0.4132
     37 H12         9.1777    4.9763    4.1197 H         1 <0>         0.1838
     38 H13         8.1368    3.5448    4.3082 H         1 <0>         0.1626
     39 H14         7.2578    4.2519    6.4874 H         1 <0>         0.1005
     40 H15         8.3619    4.7799    7.7798 H         1 <0>         0.1114
     41 H16         7.9873    6.1615    5.0840 H         1 <0>         0.0734
     42 H17         7.3314    6.7257    6.6395 H         1 <0>         0.1011
     43 H18         9.4353    7.9119    6.0780 H         1 <0>         0.0919
     44 H19         9.6335    6.9172    7.5407 H         1 <0>         0.0816
     45 H20        10.4578    6.1107    4.7146 H         1 <0>         0.0687
     46 H21        11.5619    6.6387    6.0070 H         1 <0>         0.1030
     47 H22        10.8324    4.7291    7.4104 H         1 <0>         0.1183
     48 H23        11.4883    4.1649    5.8549 H         1 <0>         0.0844
     49 H24         7.3131    2.4264    6.7099 H         1 <0>         0.1490
     50 H25         7.9967    1.9579    5.1352 H         1 <0>         0.1197
     51 H26         7.2973   -0.0370    6.4327 H         1 <0>         0.1230
     52 H27         9.0609   -0.0210    6.1863 H         1 <0>         0.0890
     53 H28         7.5803    0.8937    8.6957 H         1 <0>         0.0882
     54 H29         8.5518   -0.5899    8.5276 H         1 <0>         0.1037
     55 H30         9.8317    1.2605    9.6256 H         1 <0>         0.1233
     56 H31        10.5695    0.7514    8.0869 H         1 <0>         0.0901
     57 H32        10.4706    3.2244    8.2520 H         1 <0>         0.1394
     58 H33         8.7060    3.1395    8.4647 H         1 <0>         0.1423
     59 H34        12.3185    3.6376    1.6128 H         1 <0>         0.3933
     60 H35        10.1741    2.1354    6.1315 H         1 <0>         0.4045
     61 H36        11.0583    3.5530    4.0265 H         1 <0>         0.4417
@<TRIPOS>BOND
     1    1    5 2
     2    1    2 1
     3    1   27 1
     4    2    3 2
     5    2   28 1
     6    3    4 1
     7    3    6 1
     8    4    5 1
     9    5   29 1
    10    6    7 1
    11    6   30 1
    12    6   31 1
    13    7    8 1
    14    8    9 1
    15    8   32 1
    16    8   33 1
    17    9   10 1
    18    9   11 1
    19    9   26 1
    20   11   12 1
    21   11   34 1
    22   11   35 1
    23   12   13 1
    24   12   36 1
    25   12   61 1
    26   13   14 1
    27   13   37 1
    28   13   38 1
    29   14   19 1
    30   14   15 1
    31   14   20 1
    32   15   16 1
    33   15   39 1
    34   15   40 1
    35   16   17 1
    36   16   41 1
    37   16   42 1
    38   17   18 1
    39   17   43 1
    40   17   44 1
    41   18   19 1
    42   18   45 1
    43   18   46 1
    44   19   47 1
    45   19   48 1
    46   20   25 1
    47   20   21 1
    48   20   60 1
    49   21   22 1
    50   21   49 1
    51   21   50 1
    52   22   23 1
    53   22   51 1
    54   22   52 1
    55   23   24 1
    56   23   53 1
    57   23   54 1
    58   24   25 1
    59   24   55 1
    60   24   56 1
    61   25   57 1
    62   25   58 1
    63   26   59 1
@<TRIPOS>MOLECULE
ZINC43422979
   42    42     0     0     0
SMALL
USER_CHARGES

@<TRIPOS>ATOM
      1 C1         -0.2029    1.0509   -1.4958 C.3       1 <0>        -0.1500
      2 C2         -0.5080   -0.4402   -1.6520 C.3       1 <0>        -0.1421
      3 C3          0.5453   -1.0844   -2.5557 C.3       1 <0>        -0.1687
      4 C4         -0.4814   -1.1129   -0.2780 C.3       1 <0>        -0.0180
      5 N1         -0.9455   -2.5010   -0.4034 N.4       1 <0>        -0.3920
      6 C5         -0.5468   -3.2602    0.7894 C.3       1 <0>        -0.0123
      7 C6          0.9795   -3.3432    0.8545 C.3       1 <0>        -0.1603
      8 C7          1.3869   -4.1851    2.0362 C.cat     1 <0>         0.5463
      9 N2          1.5883   -3.6187    3.2133 N.pl3     1 <0>        -0.7415
     10 N3          1.5428   -5.4901    1.8954 N.pl3     1 <0>        -0.7412
     11 C8         -2.4090   -2.5186   -0.5284 C.3       1 <0>         0.0459
     12 C9         -2.8026   -2.0162   -1.8936 C.ar      1 <0>        -0.1770
     13 C10        -3.5775   -0.8779   -2.0143 C.ar      1 <0>        -0.0540
     14 C11        -3.9384   -0.4163   -3.2660 C.ar      1 <0>        -0.0874
     15 C12        -3.5249   -1.0931   -4.3997 C.ar      1 <0>        -0.0391
     16 C13        -2.7501   -2.2321   -4.2809 C.ar      1 <0>        -0.1120
     17 C14        -2.3833   -2.6913   -3.0272 C.ar      1 <0>         0.1096
     18 F1         -1.6216   -3.8010   -2.9100 F         1 <0>        -0.1334
     19 Br1        -4.0200   -0.4607   -6.1116 Br        1 <0>         0.0137
     20 H1         -0.2219    1.5301   -2.4746 H         1 <0>         0.0815
     21 H2         -0.9533    1.5098   -0.8520 H         1 <0>         0.0697
     22 H3          0.7837    1.1751   -1.0495 H         1 <0>         0.0678
     23 H4         -1.4947   -0.5644   -2.0983 H         1 <0>         0.1113
     24 H5          0.4882   -0.6441   -3.5511 H         1 <0>         0.0885
     25 H6          1.5371   -0.9113   -2.1381 H         1 <0>         0.0752
     26 H7          0.3608   -2.1566   -2.6215 H         1 <0>         0.0435
     27 H8          0.5367   -1.1039    0.1112 H         1 <0>         0.1304
     28 H9         -1.1361   -0.5711    0.4045 H         1 <0>         0.1422
     29 H10        -0.9218   -2.7586    1.6815 H         1 <0>         0.1528
     30 H11        -0.9634   -4.2660    0.7359 H         1 <0>         0.1494
     31 H12         1.3582   -3.7957   -0.0619 H         1 <0>         0.1519
     32 H13         1.3936   -2.3407    0.9627 H         1 <0>         0.1531
     33 H14         1.4738   -2.6610    3.3165 H         1 <0>         0.4511
     34 H15         1.3950   -5.9058    1.0316 H         1 <0>         0.4516
     35 H16         1.8050   -6.0320    2.6560 H         1 <0>         0.4427
     36 H17        -2.7727   -3.5378   -0.3976 H         1 <0>         0.1481
     37 H18        -2.8467   -1.8759    0.2354 H         1 <0>         0.1534
     38 H19        -3.9014   -0.3493   -1.1300 H         1 <0>         0.1585
     39 H20        -4.5439    0.4732   -3.3592 H         1 <0>         0.1602
     40 H21        -2.4279   -2.7610   -5.1657 H         1 <0>         0.1625
     41 H22         1.8504   -4.1606    3.9738 H         1 <0>         0.4427
     42 H23        -0.5328   -2.9209   -1.2228 H         1 <0>         0.4255
@<TRIPOS>BOND
     1    1    2 1
     2    1   20 1
     3    1   21 1
     4    1   22 1
     5    2    3 1
     6    2    4 1
     7    2   23 1
     8    3   24 1
     9    3   25 1
    10    3   26 1
    11    4    5 1
    12    4   27 1
    13    4   28 1
    14    5    6 1
    15    5   11 1
    16    5   42 1
    17    6    7 1
    18    6   29 1
    19    6   30 1
    20    7    8 1
    21    7   31 1
    22    7   32 1
    23    8    9 2
    24    8   10 1
    25    9   33 1
    26    9   41 1
    27   10   34 1
    28   10   35 1
    29   11   12 1
    30   11   36 1
    31   11   37 1
    32   12   17 ar
    33   12   13 ar
    34   13   14 ar
    35   13   38 1
    36   14   15 ar
    37   14   39 1
    38   15   16 ar
    39   15   19 1
    40   16   17 ar
    41   16   40 1
    42   17   18 1
@<TRIPOS>MOLECULE
ZINC62702683
   45    46     0     0     0
SMALL
USER_CHARGES

@<TRIPOS>ATOM
      1 C1         -0.8023    0.5124    0.2301 C.3       1 <0>        -0.1772
      2 C2         -0.2101   -0.8780   -0.0085 C.3       1 <0>        -0.0762
      3 C3          0.4613   -1.3733    1.2740 C.3       1 <0>        -0.1571
      4 C4         -1.3260   -1.8462   -0.4066 C.3       1 <0>        -0.1679
      5 C5          0.8265   -0.8050   -1.1314 C.3       1 <0>         0.0147
      6 H1          1.1971   -1.8066   -1.3494 H         1 <0>         0.1618
      7 C6          1.9909    0.0856   -0.6935 C.3       1 <0>         0.0693
      8 N1          3.0434    0.0492   -1.7119 N.pl3     1 <0>        -0.4353
      9 C7          3.8712   -1.0057   -1.9871 C.2       1 <0>         0.0215
     10 C8          4.6821   -0.6137   -2.9883 C.2       1 <0>         0.0289
     11 N2          4.3584    0.6462   -3.3154 N.pl3     1 <0>        -0.4607
     12 C9          3.3742    1.0480   -2.5584 C.cat     1 <0>         0.2668
     13 N3          0.2042   -0.2401   -2.3363 N.4       1 <0>        -0.5143
     14 C10         1.0071   -0.5948   -3.5142 C.3       1 <0>         0.0408
     15 C11         0.3793    0.0009   -4.7479 C.ar      1 <0>        -0.1868
     16 C12        -0.5665   -0.7172   -5.4565 C.ar      1 <0>        -0.0543
     17 C13        -1.1434   -0.1739   -6.5880 C.ar      1 <0>        -0.1284
     18 C14        -0.7737    1.0936   -7.0135 C.ar      1 <0>         0.1910
     19 C15         0.1754    1.8128   -6.3007 C.ar      1 <0>        -0.1285
     20 C16         0.7457    1.2666   -5.1661 C.ar      1 <0>        -0.0582
     21 Br1         0.6830    3.5408   -6.8772 Br        1 <0>         0.0059
     22 O1         -1.3396    1.6300   -8.1268 O.3       1 <0>        -0.4768
     23 H2         -0.0074    1.2021    0.5138 H         1 <0>         0.0739
     24 H3         -1.2807    0.8652   -0.6835 H         1 <0>         0.0574
     25 H4         -1.5408    0.4604    1.0301 H         1 <0>         0.1004
     26 H5         -0.2772   -1.4253    2.0740 H         1 <0>         0.0932
     27 H6          0.8832   -2.3639    1.1041 H         1 <0>         0.0768
     28 H7          1.2563   -0.6836    1.5577 H         1 <0>         0.0690
     29 H8         -1.8713   -1.4413   -1.2591 H         1 <0>         0.0584
     30 H9         -0.8923   -2.8091   -0.6766 H         1 <0>         0.0786
     31 H10        -2.0092   -1.9779    0.4324 H         1 <0>         0.0988
     32 H11         1.6389    1.1099   -0.5712 H         1 <0>         0.1487
     33 H12         2.3894   -0.2772    0.2540 H         1 <0>         0.1735
     34 H13         3.8737   -1.9674   -1.4957 H         1 <0>         0.2351
     35 H14         5.4573   -1.2093   -3.4473 H         1 <0>         0.2360
     36 H15         2.9040    2.0194   -2.6002 H         1 <0>         0.2653
     37 H16        -0.7277   -0.6128   -2.4398 H         1 <0>         0.4408
     38 H17         2.0178   -0.2042   -3.3961 H         1 <0>         0.1096
     39 H18         1.0461   -1.6796   -3.6141 H         1 <0>         0.1523
     40 H19        -0.8542   -1.7040   -5.1250 H         1 <0>         0.1469
     41 H20        -1.8815   -0.7358   -7.1412 H         1 <0>         0.1591
     42 H21         1.4814    1.8272   -4.6085 H         1 <0>         0.1311
     43 H22        -2.1437    2.1383   -7.9533 H         1 <0>         0.4154
     44 H23         0.1573    0.7642   -2.2512 H         1 <0>         0.4259
     45 H24         4.7858    1.1740   -4.0079 H         1 <0>         0.4751
@<TRIPOS>BOND
     1    1    2 1
     2    1   23 1
     3    1   24 1
     4    1   25 1
     5    2    3 1
     6    2    4 1
     7    2    5 1
     8    3   26 1
     9    3   27 1
    10    3   28 1
    11    4   29 1
    12    4   30 1
    13    4   31 1
    14    5    6 1
    15    5    7 1
    16    5   13 1
    17    7    8 1
    18    7   32 1
    19    7   33 1
    20    8   12 1
    21    8    9 1
    22    9   10 2
    23    9   34 1
    24   10   11 1
    25   10   35 1
    26   11   12 2
    27   11   45 1
    28   12   36 1
    29   13   14 1
    30   13   37 1
    31   13   44 1
    32   14   15 1
    33   14   38 1
    34   14   39 1
    35   15   20 ar
    36   15   16 ar
    37   16   17 ar
    38   16   40 1
    39   17   18 ar
    40   17   41 1
    41   18   19 ar
    42   18   22 1
    43   19   20 ar
    44   19   21 1
    45   20   42 1
    46   22   43 1
@<TRIPOS>MOLECULE
ZINC65934532
   55    57     0     0     0
SMALL
USER_CHARGES

@<TRIPOS>ATOM
      1 C1          0.5973    1.6163   -2.2239 C.3       1 <0>        -0.1920
      2 C2          0.2802    0.1256   -2.3586 C.3       1 <0>        -0.0151
      3 N1          0.8264   -0.5977   -1.2026 N.4       1 <0>        -0.3866
      4 C3          0.1356   -0.1622    0.0185 C.3       1 <0>        -0.0176
      5 C4          0.8101   -0.7927    1.2385 C.3       1 <0>        -0.1891
      6 C5          0.6276   -2.0411   -1.3895 C.3       1 <0>        -0.0156
      7 C6          1.4529   -2.5189   -2.5859 C.3       1 <0>        -0.1468
      8 C7          1.3363   -4.0393   -2.7114 C.3       1 <0>        -0.1493
      9 C8          2.1616   -4.5171   -3.9078 C.3       1 <0>        -0.0097
     10 N2          2.0496   -5.9769   -4.0282 N.4       1 <0>        -0.5117
     11 C9          2.8421   -6.4357   -5.1769 C.3       1 <0>         0.0892
     12 C10         2.7272   -7.9332   -5.3005 C.2       1 <0>        -0.3123
     13 C11         3.6340   -8.8381   -4.8740 C.2       1 <0>         0.1280
     14 N3          3.1651  -10.0703   -5.1678 N.pl3     1 <0>        -0.4411
     15 H1          3.6111  -10.9098   -4.9747 H         1 <0>         0.4618
     16 N4          1.9231   -9.9262   -5.7993 N.2       1 <0>        -0.2344
     17 C12         1.6506   -8.6389   -5.8768 C.2       1 <0>         0.1719
     18 C13         0.4341   -8.0406   -6.4670 C.2       1 <0>         0.0492
     19 C14        -0.2355   -8.5335   -7.5359 C.2       1 <0>        -0.1096
     20 C15        -1.3629   -7.6260   -7.7626 C.ar      1 <0>        -0.1370
     21 C16        -2.4044   -7.5804   -8.6904 C.ar      1 <0>        -0.0525
     22 C17        -3.3226   -6.5693   -8.6293 C.ar      1 <0>        -0.1266
     23 C18        -3.2245   -5.5895   -7.6517 C.ar      1 <0>        -0.0722
     24 C19        -2.2026   -5.6177   -6.7263 C.ar      1 <0>        -0.1175
     25 C20        -1.2588   -6.6360   -6.7694 C.ar      1 <0>         0.0626
     26 O1         -0.1773   -6.9268   -6.0181 O.3       1 <0>        -0.2167
     27 H2          0.1482    2.0020   -1.3086 H         1 <0>         0.0834
     28 H3          1.6776    1.7560   -2.1853 H         1 <0>         0.0817
     29 H4          0.1920    2.1530   -3.0816 H         1 <0>         0.1095
     30 H5         -0.8001   -0.0140   -2.3972 H         1 <0>         0.1309
     31 H6          0.7293   -0.2600   -3.2739 H         1 <0>         0.1289
     32 H7          0.1854    0.9238    0.0965 H         1 <0>         0.1373
     33 H8         -0.9075   -0.4761   -0.0226 H         1 <0>         0.1312
     34 H9          1.8420   -0.4474    1.3020 H         1 <0>         0.0821
     35 H10         0.2733   -0.5016    2.1414 H         1 <0>         0.1103
     36 H11         0.7956   -1.8783    1.1412 H         1 <0>         0.0769
     37 H12         0.9476   -2.5711   -0.4924 H         1 <0>         0.1359
     38 H13        -0.4280   -2.2417   -1.5730 H         1 <0>         0.1340
     39 H14         1.0792   -2.0495   -3.4959 H         1 <0>         0.0995
     40 H15         2.4978   -2.2456   -2.4389 H         1 <0>         0.0982
     41 H16         1.7101   -4.5087   -1.8014 H         1 <0>         0.0989
     42 H17         0.2914   -4.3126   -2.8584 H         1 <0>         0.0990
     43 H18         1.7879   -4.0477   -4.8177 H         1 <0>         0.1355
     44 H19         3.2065   -4.2438   -3.7607 H         1 <0>         0.1370
     45 H20         2.3956   -6.4114   -3.1859 H         1 <0>         0.4265
     46 H21         2.4683   -5.9663   -6.0869 H         1 <0>         0.1375
     47 H22         3.8870   -6.1623   -5.0299 H         1 <0>         0.1421
     48 H23         4.5704   -8.6157   -4.3839 H         1 <0>         0.1987
     49 H24         0.0117   -9.4168   -8.1060 H         1 <0>         0.1695
     50 H25        -2.4845   -8.3403   -9.4536 H         1 <0>         0.1385
     51 H26        -4.1291   -6.5327   -9.3466 H         1 <0>         0.1410
     52 H27        -3.9563   -4.7961   -7.6153 H         1 <0>         0.1434
     53 H28        -2.1359   -4.8496   -5.9700 H         1 <0>         0.1296
     54 H29         1.8128   -0.4021   -1.1189 H         1 <0>         0.4234
     55 H30         1.0824   -6.2299   -4.1643 H         1 <0>         0.4301
@<TRIPOS>BOND
     1    1    2 1
     2    1   27 1
     3    1   28 1
     4    1   29 1
     5    2    3 1
     6    2   30 1
     7    2   31 1
     8    3    4 1
     9    3    6 1
    10    3   54 1
    11    4    5 1
    12    4   32 1
    13    4   33 1
    14    5   34 1
    15    5   35 1
    16    5   36 1
    17    6    7 1
    18    6   37 1
    19    6   38 1
    20    7    8 1
    21    7   39 1
    22    7   40 1
    23    8    9 1
    24    8   41 1
    25    8   42 1
    26    9   10 1
    27    9   43 1
    28    9   44 1
    29   10   11 1
    30   10   45 1
    31   10   55 1
    32   11   12 1
    33   11   46 1
    34   11   47 1
    35   12   17 1
    36   12   13 2
    37   13   14 1
    38   13   48 1
    39   14   15 1
    40   14   16 1
    41   16   17 2
    42   17   18 1
    43   18   26 1
    44   18   19 2
    45   19   20 1
    46   19   49 1
    47   20   25 ar
    48   20   21 ar
    49   21   22 ar
    50   21   50 1
    51   22   23 ar
    52   22   51 1
    53   23   24 ar
    54   23   52 1
    55   24   25 ar
    56   24   53 1
    57   25   26 1
@<TRIPOS>MOLECULE
ZINC42361083
   33    34     0     0     0
SMALL
USER_CHARGES

@<TRIPOS>ATOM
      1 C1         -0.0751    1.4479   -0.1148 C.3       1 <0>         0.0135
      2 N1         -0.0247   -0.0080    0.0743 N.3       1 <0>        -0.5508
      3 C2          0.4242   -0.3474    1.4312 C.3       1 <0>         0.0968
      4 C3          1.9106   -0.1238    1.5393 C.2       1 <0>        -0.1322
      5 C4          2.7967   -1.1418    1.2393 C.2       1 <0>        -0.1137
      6 C5          4.1282   -0.9069    1.3471 C.2       1 <0>        -0.1761
      7 S1          4.1604    0.7947    1.8864 S.3       1 <0>         0.1428
      8 C6          2.3985    1.0797    1.9265 C.2       1 <0>        -0.1495
      9 Br1         5.5749   -2.0780    1.0132 Br        1 <0>         0.0518
     10 C7         -1.3266   -0.6223   -0.2186 C.3       1 <0>         0.1444
     11 H1         -2.0525   -0.3108    0.5325 H         1 <0>         0.1151
     12 C8         -1.1888   -2.1458   -0.1937 C.3       1 <0>         0.0005
     13 N2         -0.1056   -2.5544   -1.0979 N.4       1 <0>        -0.6360
     14 C9         -1.7942   -0.1824   -1.5820 C.2       1 <0>        -0.2028
     15 C10        -3.0410    0.1621   -1.9864 C.2       1 <0>        -0.1013
     16 C11        -3.2395    0.5377   -3.3020 C.2       1 <0>        -0.1200
     17 C12        -2.1800    0.5502   -4.1488 C.2       1 <0>        -0.1462
     18 S2         -0.8480    0.0275   -3.0812 S.3       1 <0>         0.1006
     19 Br2        -2.1264    1.0093   -5.9825 Br        1 <0>         0.0675
     20 H2          0.9182    1.8690    0.0403 H         1 <0>         0.0871
     21 H3         -0.4104    1.6714   -1.1275 H         1 <0>         0.0817
     22 H4         -0.7705    1.8836    0.6026 H         1 <0>         0.0451
     23 H5         -0.0919    0.2852    2.1535 H         1 <0>         0.0713
     24 H6          0.1982   -1.3936    1.6377 H         1 <0>         0.0846
     25 H7          2.4343   -2.1092    0.9244 H         1 <0>         0.1299
     26 H8          1.8609    1.9781    2.1917 H         1 <0>         0.1926
     27 H9         -0.9587   -2.4733    0.8202 H         1 <0>         0.1454
     28 H10        -2.1245   -2.6006   -0.5188 H         1 <0>         0.1473
     29 H11        -0.3523   -2.3172   -2.0471 H         1 <0>         0.4284
     30 H12         0.7449   -2.0756   -0.8419 H         1 <0>         0.4400
     31 H13        -3.8673    0.1432   -1.2913 H         1 <0>         0.1500
     32 H14        -4.2230    0.8166   -3.6502 H         1 <0>         0.1542
     33 H15         0.0348   -3.5510   -1.0259 H         1 <0>         0.4380
@<TRIPOS>BOND
     1    1    2 1
     2    1   20 1
     3    1   21 1
     4    1   22 1
     5    2    3 1
     6    2   10 1
     7    3    4 1
     8    3   23 1
     9    3   24 1
    10    4    8 2
    11    4    5 1
    12    5    6 2
    13    5   25 1
    14    6    7 1
    15    6    9 1
    16    7    8 1
    17    8   26 1
    18   10   11 1
    19   10   12 1
    20   10   14 1
    21   12   13 1
    22   12   27 1
    23   12   28 1
    24   13   29 1
    25   13   30 1
    26   13   33 1
    27   14   18 1
    28   14   15 2
    29   15   16 1
    30   15   31 1
    31   16   17 2
    32   16   32 1
    33   17   18 1
    34   17   19 1
@<TRIPOS>MOLECULE
ZINC43257881
   35    36     0     0     0
SMALL
USER_CHARGES

@<TRIPOS>ATOM
      1 C1         -0.5967    1.4827    0.4311 C.3       1 <0>        -0.1732
      2 C2         -0.5562   -0.0463    0.3932 C.3       1 <0>        -0.1434
      3 C3          0.4582   -0.5552    1.4194 C.3       1 <0>         0.0519
      4 H1          0.2148   -0.1512    2.4021 H         1 <0>         0.1559
      5 C4          0.4093   -2.0836    1.4701 C.3       1 <0>        -0.0232
      6 H2          0.6014   -2.4865    0.4757 H         1 <0>         0.1390
      7 C5         -0.9529   -2.5275    1.9374 C.2       1 <0>        -0.2072
      8 C6         -1.8615   -3.3056    1.3008 C.2       1 <0>        -0.0956
      9 C7         -3.0611   -3.5865    1.9284 C.2       1 <0>        -0.1513
     10 C8         -3.2923   -3.0744    3.1632 C.2       1 <0>        -0.0920
     11 S1         -1.7847   -2.1709    3.4762 S.3       1 <0>         0.1459
     12 Cl1        -4.6888   -3.2562    4.1783 Cl        1 <0>         0.0431
     13 S2          1.6715   -2.6910    2.6228 S.3       1 <0>        -0.0701
     14 C9          1.7112   -4.4288    2.3344 C.ar      1 <0>        -0.1056
     15 C10         0.9649   -4.9800    1.3010 C.ar      1 <0>        -0.1366
     16 C11         0.9987   -6.3446    1.0772 C.ar      1 <0>         0.1163
     17 C12         1.7758   -7.1608    1.8823 C.ar      1 <0>        -0.1100
     18 C13         2.5201   -6.6148    2.9121 C.ar      1 <0>        -0.0999
     19 C14         2.4948   -5.2511    3.1379 C.ar      1 <0>         0.1208
     20 F1          3.2262   -4.7181    4.1409 F         1 <0>        -0.1182
     21 F2          0.2727   -6.8818    0.0724 F         1 <0>        -0.1230
     22 N1          1.8069   -0.1210    1.0317 N.4       1 <0>        -0.6365
     23 H3          0.3907    1.8783    0.1931 H         1 <0>         0.0551
     24 H4         -1.3193    1.8452   -0.2999 H         1 <0>         0.0888
     25 H5         -0.8903    1.8137    1.4273 H         1 <0>         0.0757
     26 H6         -1.5435   -0.4420    0.6313 H         1 <0>         0.1187
     27 H7         -0.2626   -0.3774   -0.6029 H         1 <0>         0.0959
     28 H8         -1.6519   -3.7002    0.3175 H         1 <0>         0.1447
     29 H9         -3.8027   -4.2037    1.4431 H         1 <0>         0.1535
     30 H10         0.3585   -4.3440    0.6732 H         1 <0>         0.1439
     31 H11         1.8003   -8.2260    1.7057 H         1 <0>         0.1590
     32 H12         3.1250   -7.2541    3.5381 H         1 <0>         0.1618
     33 H13         1.8548    0.8866    1.0526 H         1 <0>         0.4416
     34 H14         2.4818   -0.5033    1.6770 H         1 <0>         0.4376
     35 H15         2.0105   -0.4481    0.0992 H         1 <0>         0.4364
@<TRIPOS>BOND
     1    1    2 1
     2    1   23 1
     3    1   24 1
     4    1   25 1
     5    2    3 1
     6    2   26 1
     7    2   27 1
     8    3    4 1
     9    3    5 1
    10    3   22 1
    11    5    6 1
    12    5    7 1
    13    5   13 1
    14    7   11 1
    15    7    8 2
    16    8    9 1
    17    8   28 1
    18    9   10 2
    19    9   29 1
    20   10   11 1
    21   10   12 1
    22   13   14 1
    23   14   19 ar
    24   14   15 ar
    25   15   16 ar
    26   15   30 1
    27   16   17 ar
    28   16   21 1
    29   17   18 ar
    30   17   31 1
    31   18   19 ar
    32   18   32 1
    33   19   20 1
    34   22   33 1
    35   22   34 1
    36   22   35 1
@<TRIPOS>MOLECULE
ZINC43290035
   35    36     0     0     0
SMALL
USER_CHARGES

@<TRIPOS>ATOM
      1 C1          0.0176    1.5030   -0.1072 C.3       1 <0>        -0.1720
      2 C2          0.0242   -0.0263   -0.0593 C.3       1 <0>        -0.1487
      3 C3         -1.4160   -0.5423   -0.0458 C.3       1 <0>         0.0090
      4 H1         -1.9554   -0.1366   -0.9016 H         1 <0>         0.1610
      5 C4         -1.4111   -2.0703   -0.1237 C.3       1 <0>         0.1634
      6 H2         -0.8717   -2.4760    0.7322 H         1 <0>         0.1235
      7 C5         -0.7333   -2.5061   -1.3972 C.2       1 <0>        -0.2061
      8 C6          0.5325   -2.9553   -1.5798 C.2       1 <0>        -0.0865
      9 C7          0.9434   -3.3028   -2.8535 C.2       1 <0>        -0.1437
     10 C8          0.0677   -3.1838   -3.8818 C.2       1 <0>        -0.1123
     11 S1         -1.3917   -2.5720   -3.0553 S.3       1 <0>         0.1521
     12 Br1         2.7000   -3.9338   -3.1567 Br        1 <0>        -0.0116
     13 O1         -2.7563   -2.5523   -0.1111 O.3       1 <0>        -0.2837
     14 C9         -3.2512   -2.9697    1.0846 C.ar      1 <0>         0.0930
     15 C10        -2.5018   -2.8087    2.2404 C.ar      1 <0>        -0.2089
     16 C11        -3.0060   -3.2328    3.4548 C.ar      1 <0>        -0.0986
     17 C12        -4.2590   -3.8186    3.5189 C.ar      1 <0>         0.1033
     18 C13        -5.0088   -3.9804    2.3665 C.ar      1 <0>        -0.0955
     19 C14        -4.5093   -3.5522    1.1505 C.ar      1 <0>        -0.0284
     20 Cl1        -5.4521   -3.7490   -0.2938 Cl        1 <0>        -0.0147
     21 F1         -4.7501   -4.2331    4.7073 F         1 <0>        -0.1173
     22 N1         -2.0767   -0.1175    1.1956 N.4       1 <0>        -0.6401
     23 H3          1.0437    1.8706   -0.1168 H         1 <0>         0.0893
     24 H4         -0.4961    1.8360   -1.0089 H         1 <0>         0.0761
     25 H5         -0.4993    1.8917    0.7702 H         1 <0>         0.0542
     26 H6          0.5412   -0.4150   -0.9366 H         1 <0>         0.1206
     27 H7          0.5380   -0.3593    0.8424 H         1 <0>         0.0947
     28 H8          1.2101   -3.0402   -0.7431 H         1 <0>         0.1484
     29 H9          0.2137   -3.4060   -4.9286 H         1 <0>         0.2061
     30 H10        -1.5243   -2.3522    2.1911 H         1 <0>         0.1409
     31 H11        -2.4221   -3.1077    4.3547 H         1 <0>         0.1578
     32 H12        -5.9860   -4.4374    2.4180 H         1 <0>         0.1659
     33 H13        -2.0800    0.8902    1.2470 H         1 <0>         0.4416
     34 H14        -3.0266   -0.4578    1.2045 H         1 <0>         0.4370
     35 H15        -1.5774   -0.4931    1.9879 H         1 <0>         0.4302
@<TRIPOS>BOND
     1    1    2 1
     2    1   23 1
     3    1   24 1
     4    1   25 1
     5    2    3 1
     6    2   26 1
     7    2   27 1
     8    3    4 1
     9    3    5 1
    10    3   22 1
    11    5    6 1
    12    5    7 1
    13    5   13 1
    14    7   11 1
    15    7    8 2
    16    8    9 1
    17    8   28 1
    18    9   10 2
    19    9   12 1
    20   10   11 1
    21   10   29 1
    22   13   14 1
    23   14   19 ar
    24   14   15 ar
    25   15   16 ar
    26   15   30 1
    27   16   17 ar
    28   16   31 1
    29   17   18 ar
    30   17   21 1
    31   18   19 ar
    32   18   32 1
    33   19   20 1
    34   22   33 1
    35   22   34 1
    36   22   35 1
@<TRIPOS>MOLECULE
ZINC52947508
   37    38     0     0     0
SMALL
USER_CHARGES

@<TRIPOS>ATOM
      1 C1          0.1845    1.4077   -0.3188 C.ar      1 <0>        -0.0810
      2 C2          1.3538    2.1275   -0.4754 C.ar      1 <0>        -0.1464
      3 C3          2.5434    1.4673   -0.7325 C.ar      1 <0>         0.1084
      4 C4          2.5600    0.0864   -0.8323 C.ar      1 <0>        -0.1502
      5 C5          1.3895   -0.6313   -0.6753 C.ar      1 <0>        -0.0994
      6 C6          0.2023    0.0290   -0.4186 C.ar      1 <0>        -0.1148
      7 C7         -1.0734   -0.7548   -0.2476 C.3       1 <0>        -0.0738
      8 C8         -1.7562   -0.9206   -1.6067 C.3       1 <0>        -0.1064
      9 H1         -1.9056    0.0592   -2.0603 H         1 <0>         0.1021
     10 C9         -3.1106   -1.6065   -1.4168 C.3       1 <0>        -0.0882
     11 C10        -4.0230   -0.7060   -0.6246 C.ar      1 <0>        -0.0856
     12 C11        -4.1366   -0.8681    0.7435 C.ar      1 <0>        -0.1056
     13 C12        -4.9730   -0.0421    1.4705 C.ar      1 <0>        -0.0846
     14 C13        -5.6964    0.9470    0.8289 C.ar      1 <0>        -0.0849
     15 C14        -5.5825    1.1089   -0.5401 C.ar      1 <0>        -0.0858
     16 C15        -4.7418    0.2858   -1.2656 C.ar      1 <0>        -0.1114
     17 Br1        -6.8414    2.0770    1.8228 Br        1 <0>        -0.0332
     18 C16        -0.8749   -1.7759   -2.5192 C.3       1 <0>        -0.0138
     19 N1         -1.4977   -1.8785   -3.8457 N.4       1 <0>        -0.6391
     20 F1          3.6870    2.1700   -0.8862 F         1 <0>        -0.1317
     21 H2         -0.7427    1.9222   -0.1138 H         1 <0>         0.1345
     22 H3          1.3396    3.2046   -0.3977 H         1 <0>         0.1410
     23 H4          3.4872   -0.4296   -1.0332 H         1 <0>         0.1401
     24 H5          1.4021   -1.7084   -0.7535 H         1 <0>         0.1323
     25 H6         -0.8438   -1.7368    0.1659 H         1 <0>         0.0883
     26 H7         -1.7393   -0.2215    0.4308 H         1 <0>         0.0993
     27 H8         -3.5555   -1.8083   -2.3912 H         1 <0>         0.0711
     28 H9         -2.9706   -2.5448   -0.8800 H         1 <0>         0.0944
     29 H10        -3.5719   -1.6406    1.2443 H         1 <0>         0.1342
     30 H11        -5.0619   -0.1691    2.5393 H         1 <0>         0.1383
     31 H12        -6.1471    1.8810   -1.0415 H         1 <0>         0.1369
     32 H13        -4.6497    0.4148   -2.3339 H         1 <0>         0.1278
     33 H14         0.1073   -1.3129   -2.6139 H         1 <0>         0.1393
     34 H15        -0.7671   -2.7722   -2.0904 H         1 <0>         0.1392
     35 H16        -1.6916   -0.9534   -4.1987 H         1 <0>         0.4356
     36 H17        -0.8699   -2.3543   -4.4762 H         1 <0>         0.4398
     37 H18        -2.3595   -2.3983   -3.7733 H         1 <0>         0.4333
@<TRIPOS>BOND
     1    1    6 ar
     2    1    2 ar
     3    1   21 1
     4    2    3 ar
     5    2   22 1
     6    3    4 ar
     7    3   20 1
     8    4    5 ar
     9    4   23 1
    10    5    6 ar
    11    5   24 1
    12    6    7 1
    13    7    8 1
    14    7   25 1
    15    7   26 1
    16    8    9 1
    17    8   10 1
    18    8   18 1
    19   10   11 1
    20   10   27 1
    21   10   28 1
    22   11   16 ar
    23   11   12 ar
    24   12   13 ar
    25   12   29 1
    26   13   14 ar
    27   13   30 1
    28   14   15 ar
    29   14   17 1
    30   15   16 ar
    31   15   31 1
    32   16   32 1
    33   18   19 1
    34   18   33 1
    35   18   34 1
    36   19   35 1
    37   19   36 1
    38   19   37 1
@<TRIPOS>MOLECULE
ZINC67247560
   42    44     0     0     0
SMALL
USER_CHARGES

@<TRIPOS>ATOM
      1 C1         -0.0167    1.3779    0.0096 C.ar      1 <0>        -0.1137
      2 C2          1.1711    2.0854    0.0021 C.ar      1 <0>        -0.0829
      3 C3          2.3773    1.4107   -0.0130 C.ar      1 <0>        -0.0897
      4 C4          2.3960    0.0283   -0.0201 C.ar      1 <0>        -0.0732
      5 C5          1.2086   -0.6790   -0.0117 C.ar      1 <0>        -0.1633
      6 C6          0.0021   -0.0041    0.0020 C.ar      1 <0>        -0.0861
      7 C7          1.2291   -2.1858   -0.0204 C.3       1 <0>         0.0417
      8 N1          1.4905   -2.6799    1.3381 N.4       1 <0>        -0.5124
      9 C8          1.5104   -4.1487    1.3296 C.3       1 <0>         0.0991
     10 C9          1.7786   -4.6555    2.7232 C.2       1 <0>        -0.2841
     11 C10         0.8925   -4.9630    3.7047 C.2       1 <0>        -0.0725
     12 C11         1.3646   -5.4159    4.9176 C.2       1 <0>        -0.1680
     13 C12         2.7168   -5.5409    5.0923 C.2       1 <0>        -0.0478
     14 S1          3.3427   -5.0136    3.5056 S.3       1 <0>         0.1180
     15 C13         3.4638   -5.9987    6.2830 C.ar      1 <0>        -0.0779
     16 C14         3.1861   -5.4534    7.5371 C.ar      1 <0>        -0.0582
     17 C15         3.8867   -5.8848    8.6445 C.ar      1 <0>        -0.1253
     18 C16         4.8636   -6.8563    8.5150 C.ar      1 <0>        -0.0656
     19 C17         5.1453   -7.4021    7.2758 C.ar      1 <0>        -0.1494
     20 C18         4.4473   -6.9836    6.1588 C.ar      1 <0>         0.1222
     21 F1          4.7190   -7.5211    4.9494 F         1 <0>        -0.1295
     22 C19         3.7112   -0.7073   -0.0376 C.3       1 <0>         0.1108
     23 O1          4.7846    0.2360   -0.0441 O.3       1 <0>        -0.5583
     24 H1         -0.9591    1.9051    0.0259 H         1 <0>         0.1376
     25 H2          1.1565    3.1653    0.0076 H         1 <0>         0.1377
     26 H3          3.3051    1.9634   -0.0196 H         1 <0>         0.1454
     27 H4         -0.9258   -0.5567    0.0079 H         1 <0>         0.1357
     28 H5          0.2648   -2.5603   -0.3639 H         1 <0>         0.1447
     29 H6          2.0142   -2.5347   -0.6912 H         1 <0>         0.1378
     30 H7          2.3831   -2.3332    1.6561 H         1 <0>         0.4221
     31 H8          0.5461   -4.5232    0.9861 H         1 <0>         0.1520
     32 H9          2.2955   -4.4975    0.6588 H         1 <0>         0.1426
     33 H10        -0.1688   -4.8537    3.5372 H         1 <0>         0.1463
     34 H11         0.6810   -5.6670    5.7151 H         1 <0>         0.1509
     35 H12         2.4243   -4.6948    7.6406 H         1 <0>         0.1394
     36 H13         3.6724   -5.4628    9.6153 H         1 <0>         0.1423
     37 H14         5.4089   -7.1895    9.3856 H         1 <0>         0.1441
     38 H15         5.9090   -8.1600    7.1816 H         1 <0>         0.1470
     39 H16         3.7867   -1.3376    0.8485 H         1 <0>         0.0439
     40 H17         3.7681   -1.3287   -0.9313 H         1 <0>         0.0702
     41 H18         5.6631   -0.1680   -0.0553 H         1 <0>         0.3957
     42 H19         0.7637   -2.3570    1.9591 H         1 <0>         0.4306
@<TRIPOS>BOND
     1    1    6 ar
     2    1    2 ar
     3    1   24 1
     4    2    3 ar
     5    2   25 1
     6    3    4 ar
     7    3   26 1
     8    4    5 ar
     9    4   22 1
    10    5    6 ar
    11    5    7 1
    12    6   27 1
    13    7    8 1
    14    7   28 1
    15    7   29 1
    16    8    9 1
    17    8   30 1
    18    8   42 1
    19    9   10 1
    20    9   31 1
    21    9   32 1
    22   10   14 1
    23   10   11 2
    24   11   12 1
    25   11   33 1
    26   12   13 2
    27   12   34 1
    28   13   14 1
    29   13   15 1
    30   15   20 ar
    31   15   16 ar
    32   16   17 ar
    33   16   35 1
    34   17   18 ar
    35   17   36 1
    36   18   19 ar
    37   18   37 1
    38   19   20 ar
    39   19   38 1
    40   20   21 1
    41   22   23 1
    42   22   39 1
    43   22   40 1
    44   23   41 1
@<TRIPOS>MOLECULE
ZINC37722351
   44    44     0     0     0
SMALL
USER_CHARGES

@<TRIPOS>ATOM
      1 C1         -0.0187    1.5258    0.0104 C.3       1 <0>        -0.1635
      2 C2          0.0021   -0.0041    0.0020 C.3       1 <0>        -0.1210
      3 C3         -1.4333   -0.5336    0.0129 C.3       1 <0>         0.0961
      4 H1         -1.9701   -0.1109    0.8621 H         1 <0>         0.0600
      5 C4         -1.4133   -2.0590    0.1302 C.3       1 <0>        -0.1765
      6 O1         -2.0889   -0.1578   -1.2000 O.3       1 <0>        -0.3065
      7 C5         -3.4339    0.0356   -1.1406 C.ar      1 <0>         0.1119
      8 C6         -4.3020   -1.0280   -1.3679 C.ar      1 <0>         0.1376
      9 C7         -5.6713   -0.8261   -1.3063 C.ar      1 <0>        -0.1780
     10 C8         -6.1731    0.4301   -1.0195 C.ar      1 <0>        -0.0882
     11 C9         -5.3115    1.4870   -0.7941 C.ar      1 <0>        -0.1448
     12 C10        -3.9429    1.2911   -0.8479 C.ar      1 <0>        -0.0760
     13 Br1        -2.7672    2.7378   -0.5305 Br        1 <0>        -0.0007
     14 C11        -7.6629    0.6474   -0.9531 C.3       1 <0>        -0.0996
     15 C12        -8.1502    0.4062    0.4771 C.3       1 <0>         0.0322
     16 H2         -7.8407   -0.5865    0.8038 H         1 <0>         0.1429
     17 C13        -9.6764    0.5043    0.5192 C.3       1 <0>        -0.1846
     18 N1         -7.5696    1.4185    1.3694 N.4       1 <0>        -0.6399
     19 O2         -3.8074   -2.2629   -1.6503 O.3       1 <0>        -0.2891
     20 C14        -4.7574   -3.3071   -1.8723 C.3       1 <0>         0.0503
     21 C15        -4.0190   -4.6128   -2.1736 C.3       1 <0>        -0.1564
     22 H3          1.0039    1.9031    0.0027 H         1 <0>         0.0575
     23 H4         -0.5459    1.8868   -0.8726 H         1 <0>         0.0702
     24 H5         -0.5289    1.8773    0.9072 H         1 <0>         0.0512
     25 H6          0.5123   -0.3556   -0.8948 H         1 <0>         0.0774
     26 H7          0.5293   -0.3651    0.8851 H         1 <0>         0.0828
     27 H8         -0.8764   -2.4817   -0.7190 H         1 <0>         0.0707
     28 H9         -0.9132   -2.3457    1.0553 H         1 <0>         0.0695
     29 H10        -2.4359   -2.4363    0.1380 H         1 <0>         0.0616
     30 H11        -6.3470   -1.6500   -1.4828 H         1 <0>         0.1451
     31 H12        -5.7073    2.4668   -0.5710 H         1 <0>         0.1375
     32 H13        -7.8943    1.6709   -1.2480 H         1 <0>         0.1048
     33 H14        -8.1619   -0.0472   -1.6289 H         1 <0>         0.1248
     34 H15       -10.1072   -0.2467   -0.1429 H         1 <0>         0.1085
     35 H16       -10.0236    0.3326    1.5381 H         1 <0>         0.0857
     36 H17        -9.9859    1.4971    0.1925 H         1 <0>         0.0850
     37 H18        -7.8910    1.2595    2.3126 H         1 <0>         0.4375
     38 H19        -6.5631    1.3538    1.3416 H         1 <0>         0.4329
     39 H20        -5.3720   -3.4346   -0.9812 H         1 <0>         0.0637
     40 H21        -5.3934   -3.0459   -2.7181 H         1 <0>         0.0674
     41 H22        -4.7436   -5.4093   -2.3429 H         1 <0>         0.0849
     42 H23        -3.4043   -4.4853   -3.0647 H         1 <0>         0.0721
     43 H24        -3.3829   -4.8740   -1.3278 H         1 <0>         0.0697
     44 H25        -7.8560    2.3375    1.0670 H         1 <0>         0.4334
@<TRIPOS>BOND
     1    1    2 1
     2    1   22 1
     3    1   23 1
     4    1   24 1
     5    2    3 1
     6    2   25 1
     7    2   26 1
     8    3    4 1
     9    3    5 1
    10    3    6 1
    11    5   27 1
    12    5   28 1
    13    5   29 1
    14    6    7 1
    15    7   12 ar
    16    7    8 ar
    17    8    9 ar
    18    8   19 1
    19    9   10 ar
    20    9   30 1
    21   10   11 ar
    22   10   14 1
    23   11   12 ar
    24   11   31 1
    25   12   13 1
    26   14   15 1
    27   14   32 1
    28   14   33 1
    29   15   16 1
    30   15   17 1
    31   15   18 1
    32   17   34 1
    33   17   35 1
    34   17   36 1
    35   18   37 1
    36   18   38 1
    37   18   44 1
    38   19   20 1
    39   20   21 1
    40   20   39 1
    41   20   40 1
    42   21   41 1
    43   21   42 1
    44   21   43 1
@<TRIPOS>MOLECULE
ZINC43020992
   38    38     0     0     0
SMALL
USER_CHARGES

@<TRIPOS>ATOM
      1 C1         -1.5783    2.1840   -0.1958 C.3       1 <0>        -0.1730
      2 C2         -2.0561    0.7335   -0.2885 C.3       1 <0>        -0.1482
      3 C3         -1.2636   -0.1285    0.6963 C.3       1 <0>         0.0332
      4 H1         -0.1966   -0.0036    0.5115 H         1 <0>         0.1487
      5 C4         -1.6449   -1.5983    0.5091 C.3       1 <0>         0.1077
      6 H2         -1.3701   -1.9198   -0.4955 H         1 <0>         0.1087
      7 C5         -3.1311   -1.7598    0.6993 C.ar      1 <0>        -0.1130
      8 C6         -3.6629   -1.8145    1.9744 C.ar      1 <0>        -0.1177
      9 C7         -5.0259   -1.9626    2.1494 C.ar      1 <0>        -0.0983
     10 C8         -5.8581   -2.0562    1.0496 C.ar      1 <0>        -0.0718
     11 C9         -5.3267   -2.0011   -0.2261 C.ar      1 <0>        -0.0820
     12 C10        -3.9629   -1.8476   -0.4008 C.ar      1 <0>        -0.0717
     13 Br1        -6.4645   -2.1297   -1.7310 Br        1 <0>        -0.0204
     14 N1         -0.9327   -2.4188    1.4978 N.3       1 <0>        -0.5456
     15 C11        -1.3224   -3.8309    1.3888 C.3       1 <0>        -0.0019
     16 C12         0.5216   -2.2621    1.3623 C.3       1 <0>        -0.0152
     17 C13         1.2108   -2.7871    2.6234 C.3       1 <0>         0.4617
     18 F1          0.9804   -4.1618    2.7428 F         1 <0>        -0.1716
     19 F2          2.5869   -2.5508    2.5356 F         1 <0>        -0.1718
     20 F3          0.6952   -2.1288    3.7450 F         1 <0>        -0.1796
     21 N2         -1.5744    0.2868    2.0707 N.4       1 <0>        -0.6353
     22 H3         -2.1429    2.7981   -0.8973 H         1 <0>         0.0871
     23 H4         -1.7340    2.5538    0.8177 H         1 <0>         0.0537
     24 H5         -0.5175    2.2335   -0.4416 H         1 <0>         0.0738
     25 H6         -3.1169    0.6840   -0.0426 H         1 <0>         0.0944
     26 H7         -1.9004    0.3637   -1.3019 H         1 <0>         0.1147
     27 H8         -3.0129   -1.7418    2.8339 H         1 <0>         0.1351
     28 H9         -5.4408   -2.0056    3.1456 H         1 <0>         0.1438
     29 H10        -6.9231   -2.1727    1.1865 H         1 <0>         0.1439
     30 H11        -3.5479   -1.8007   -1.3968 H         1 <0>         0.1402
     31 H12        -0.9541   -4.2379    0.4471 H         1 <0>         0.0512
     32 H13        -0.8933   -4.3914    2.2194 H         1 <0>         0.1006
     33 H14        -2.4090   -3.9113    1.4191 H         1 <0>         0.0896
     34 H15         0.8688   -2.8264    0.4969 H         1 <0>         0.1065
     35 H16         0.7626   -1.2074    1.2289 H         1 <0>         0.1175
     36 H17        -2.5620    0.1711    2.2418 H         1 <0>         0.4315
     37 H18        -1.0517   -0.2817    2.7201 H         1 <0>         0.4393
     38 H19        -1.3228    1.2561    2.1942 H         1 <0>         0.4343
@<TRIPOS>BOND
     1    1    2 1
     2    1   22 1
     3    1   23 1
     4    1   24 1
     5    2    3 1
     6    2   25 1
     7    2   26 1
     8    3    4 1
     9    3    5 1
    10    3   21 1
    11    5    6 1
    12    5    7 1
    13    5   14 1
    14    7   12 ar
    15    7    8 ar
    16    8    9 ar
    17    8   27 1
    18    9   10 ar
    19    9   28 1
    20   10   11 ar
    21   10   29 1
    22   11   12 ar
    23   11   13 1
    24   12   30 1
    25   14   15 1
    26   14   16 1
    27   15   31 1
    28   15   32 1
    29   15   33 1
    30   16   17 1
    31   16   34 1
    32   16   35 1
    33   17   18 1
    34   17   19 1
    35   17   20 1
    36   21   36 1
    37   21   37 1
    38   21   38 1
@<TRIPOS>MOLECULE
ZINC43286183
   35    35     0     0     0
SMALL
USER_CHARGES

@<TRIPOS>ATOM
      1 C1         -1.6432    2.2003   -0.1179 C.3       1 <0>        -0.1732
      2 C2         -2.0905    0.7428   -0.2475 C.3       1 <0>        -0.1478
      3 C3         -1.3029   -0.1219    0.7389 C.3       1 <0>         0.0323
      4 H1         -0.2349    0.0272    0.5804 H         1 <0>         0.1535
      5 C4         -1.6507   -1.5951    0.5160 C.3       1 <0>         0.1573
      6 H2         -1.3574   -1.8893   -0.4917 H         1 <0>         0.1203
      7 C5         -3.1353   -1.7919    0.6847 C.2       1 <0>        -0.2118
      8 C6         -4.0952   -1.9013   -0.2661 C.2       1 <0>        -0.0802
      9 C7         -5.4093   -2.0795    0.1254 C.2       1 <0>        -0.1398
     10 C8         -5.6984   -2.1395    1.4487 C.2       1 <0>        -0.0990
     11 S1         -4.0847   -1.9491    2.1883 S.3       1 <0>         0.0890
     12 Br1        -6.7825   -2.2366   -1.1652 Br        1 <0>        -0.0037
     13 N1         -0.9328   -2.4213    1.4958 N.3       1 <0>        -0.5488
     14 C9         -1.3249   -3.8325    1.3824 C.3       1 <0>        -0.0032
     15 C10         0.5207   -2.2655    1.3515 C.3       1 <0>        -0.0133
     16 C11         1.2176   -2.7965    2.6058 C.3       1 <0>         0.4622
     17 F1          0.9841   -4.1710    2.7225 F         1 <0>        -0.1715
     18 F2          2.5937   -2.5639    2.5085 F         1 <0>        -0.1711
     19 F3          0.7123   -2.1403    3.7332 F         1 <0>        -0.1786
     20 N2         -1.6523    0.2612    2.1133 N.4       1 <0>        -0.6342
     21 H3         -2.2043    2.8163   -0.8206 H         1 <0>         0.0878
     22 H4         -1.8282    2.5481    0.8984 H         1 <0>         0.0540
     23 H5         -0.5786    2.2746   -0.3393 H         1 <0>         0.0747
     24 H6         -3.1552    0.6685   -0.0261 H         1 <0>         0.0936
     25 H7         -1.9055    0.3950   -1.2638 H         1 <0>         0.1160
     26 H8         -3.8376   -1.8497   -1.3136 H         1 <0>         0.1523
     27 H9         -6.6558   -2.2727    1.9304 H         1 <0>         0.2078
     28 H10        -0.9570   -4.2371    0.4395 H         1 <0>         0.0535
     29 H11        -0.8969   -4.3963    2.2113 H         1 <0>         0.1032
     30 H12        -2.4116   -3.9112    1.4122 H         1 <0>         0.0883
     31 H13         0.8617   -2.8266    0.4814 H         1 <0>         0.1083
     32 H14         0.7619   -1.2106    1.2209 H         1 <0>         0.1195
     33 H15        -2.6410    0.1231    2.2600 H         1 <0>         0.4263
     34 H16        -1.1329   -0.3091    2.7638 H         1 <0>         0.4407
     35 H17        -1.4229    1.2327    2.2603 H         1 <0>         0.4357
@<TRIPOS>BOND
     1    1    2 1
     2    1   21 1
     3    1   22 1
     4    1   23 1
     5    2    3 1
     6    2   24 1
     7    2   25 1
     8    3    4 1
     9    3    5 1
    10    3   20 1
    11    5    6 1
    12    5    7 1
    13    5   13 1
    14    7   11 1
    15    7    8 2
    16    8    9 1
    17    8   26 1
    18    9   10 2
    19    9   12 1
    20   10   11 1
    21   10   27 1
    22   13   14 1
    23   13   15 1
    24   14   28 1
    25   14   29 1
    26   14   30 1
    27   15   16 1
    28   15   31 1
    29   15   32 1
    30   16   17 1
    31   16   18 1
    32   16   19 1
    33   20   33 1
    34   20   34 1
    35   20   35 1
@<TRIPOS>MOLECULE
ZINC48278573
   51    53     0     0     0
SMALL
USER_CHARGES

@<TRIPOS>ATOM
      1 C1         -1.1667   -2.2496   -0.6436 C.3       1 <0>        -0.1766
      2 C2          0.3173   -1.9539   -0.8697 C.3       1 <0>        -0.1435
      3 C3          0.4923   -0.4814   -1.2466 C.3       1 <0>         0.0301
      4 H1          0.0337    0.1462   -0.4825 H         1 <0>         0.1478
      5 C4          1.9836   -0.1546   -1.3476 C.3       1 <0>         0.0510
      6 O1          2.6077   -1.0555   -2.2646 O.3       1 <0>        -0.5759
      7 N1         -0.1534   -0.2273   -2.5414 N.4       1 <0>        -0.5067
      8 C5         -0.0985    1.2095   -2.8424 C.3       1 <0>         0.0802
      9 C6         -0.8714    1.4879   -4.1058 C.2       1 <0>        -0.2422
     10 C7         -0.3274    1.6658   -5.3939 C.2       1 <0>        -0.1732
     11 C8         -1.3536    1.8918   -6.2391 C.2       1 <0>         0.0479
     12 N2         -2.5140    1.8601   -5.5193 N.pl3     1 <0>        -0.3788
     13 C9         -2.2105    1.6068   -4.2118 C.2       1 <0>         0.0707
     14 C10        -3.2007    1.4842   -3.0824 C.3       1 <0>        -0.1003
     15 C11        -3.8003    2.0504   -6.0362 C.ar      1 <0>         0.0897
     16 C12        -4.5338    0.9753   -6.4876 C.ar      1 <0>        -0.0809
     17 C13        -5.8139    1.1534   -7.0040 C.ar      1 <0>        -0.1201
     18 C14        -6.3761    2.3914   -7.0777 C.ar      1 <0>        -0.0722
     19 C15        -5.6612    3.5140   -6.6273 C.ar      1 <0>        -0.0495
     20 C16        -4.3595    3.3441   -6.0943 C.ar      1 <0>        -0.0363
     21 C17        -3.6485    4.4662   -5.6402 C.ar      1 <0>        -0.1171
     22 C18        -4.2194    5.7001   -5.7120 C.ar      1 <0>        -0.0952
     23 C19        -5.5020    5.8676   -6.2305 C.ar      1 <0>        -0.1103
     24 C20        -6.2157    4.8042   -6.6914 C.ar      1 <0>        -0.0961
     25 C21        -1.2397    2.1375   -7.7215 C.3       1 <0>        -0.0955
     26 H2         -1.5710   -1.5448    0.0829 H         1 <0>         0.0699
     27 H3         -1.7050   -2.1487   -1.5861 H         1 <0>         0.0520
     28 H4         -1.2814   -3.2659   -0.2667 H         1 <0>         0.0843
     29 H5          0.8729   -2.1635    0.0443 H         1 <0>         0.1096
     30 H6          0.6943   -2.5827   -1.6763 H         1 <0>         0.0961
     31 H7          2.1081    0.8686   -1.7020 H         1 <0>         0.0728
     32 H8          2.4454   -0.2577   -0.3657 H         1 <0>         0.0927
     33 H9          3.5563   -0.9064   -2.3784 H         1 <0>         0.4076
     34 H10         0.3282   -0.7410   -3.2640 H         1 <0>         0.4329
     35 H11        -0.5368    1.7706   -2.0171 H         1 <0>         0.1288
     36 H12         0.9397    1.5130   -2.9772 H         1 <0>         0.1346
     37 H13         0.7196    1.6283   -5.6559 H         1 <0>         0.1487
     38 H14        -3.3641    2.4643   -2.6344 H         1 <0>         0.0878
     39 H15        -4.1448    1.0986   -3.4673 H         1 <0>         0.0798
     40 H16        -2.8094    0.8008   -2.3287 H         1 <0>         0.0700
     41 H17        -4.1106   -0.0172   -6.4405 H         1 <0>         0.1297
     42 H18        -6.3703    0.2958   -7.3524 H         1 <0>         0.1382
     43 H19        -7.3704    2.5103   -7.4822 H         1 <0>         0.1400
     44 H20        -2.6538    4.3512   -5.2356 H         1 <0>         0.1228
     45 H21        -3.6704    6.5617   -5.3616 H         1 <0>         0.1291
     46 H22        -5.9323    6.8572   -6.2764 H         1 <0>         0.1323
     47 H23        -7.2082    4.9492   -7.0917 H         1 <0>         0.1372
     48 H24        -1.2923    1.1869   -8.2524 H         1 <0>         0.0787
     49 H25        -2.0570    2.7811   -8.0470 H         1 <0>         0.0696
     50 H26        -0.2875    2.6220   -7.9375 H         1 <0>         0.0879
     51 H27        -1.1164   -0.5260   -2.5013 H         1 <0>         0.4202
@<TRIPOS>BOND
     1    1    2 1
     2    1   26 1
     3    1   27 1
     4    1   28 1
     5    2    3 1
     6    2   29 1
     7    2   30 1
     8    3    4 1
     9    3    5 1
    10    3    7 1
    11    5    6 1
    12    5   31 1
    13    5   32 1
    14    6   33 1
    15    7    8 1
    16    7   34 1
    17    7   51 1
    18    8    9 1
    19    8   35 1
    20    8   36 1
    21    9   13 2
    22    9   10 1
    23   10   11 2
    24   10   37 1
    25   11   12 1
    26   11   25 1
    27   12   13 1
    28   12   15 1
    29   13   14 1
    30   14   38 1
    31   14   39 1
    32   14   40 1
    33   15   20 ar
    34   15   16 ar
    35   16   17 ar
    36   16   41 1
    37   17   18 ar
    38   17   42 1
    39   18   19 ar
    40   18   43 1
    41   19   24 ar
    42   19   20 ar
    43   20   21 ar
    44   21   22 ar
    45   21   44 1
    46   22   23 ar
    47   22   45 1
    48   23   24 ar
    49   23   46 1
    50   24   47 1
    51   25   48 1
    52   25   49 1
    53   25   50 1
@<TRIPOS>MOLECULE
ZINC61817194
   44    45     0     0     0
SMALL
USER_CHARGES

@<TRIPOS>ATOM
      1 C1         -0.2425    0.7357   -0.0105 C.ar      1 <0>        -0.1524
      2 C2          0.8728    1.5522   -0.0441 C.ar      1 <0>        -0.0784
      3 C3          2.1366    0.9959   -0.0864 C.ar      1 <0>        -0.1509
      4 C4          2.2861   -0.3834   -0.0947 C.ar      1 <0>         0.1226
      5 C5          1.1654   -1.2004   -0.0605 C.ar      1 <0>        -0.2091
      6 C6         -0.0962   -0.6391   -0.0188 C.ar      1 <0>        -0.0799
      7 O1          3.5282   -0.9331   -0.1368 O.3       1 <0>        -0.3179
      8 C7          3.6063   -2.3600   -0.1429 C.3       1 <0>         0.0575
      9 C8          5.0737   -2.7902   -0.1920 C.3       1 <0>        -0.1243
     10 C9          5.1573   -4.3179   -0.1985 C.3       1 <0>        -0.1143
     11 C10         6.6247   -4.7482   -0.2476 C.3       1 <0>        -0.1127
     12 H1          7.1114   -4.2826   -1.1047 H         1 <0>         0.1031
     13 C11         6.7058   -6.2703   -0.3799 C.3       1 <0>        -0.0951
     14 C12         6.1343   -6.6901   -1.7096 C.ar      1 <0>        -0.0688
     15 C13         4.8228   -7.1187   -1.7941 C.ar      1 <0>        -0.1065
     16 C14         4.2984   -7.5034   -3.0138 C.ar      1 <0>        -0.0945
     17 C15         5.0853   -7.4597   -4.1498 C.ar      1 <0>        -0.1039
     18 C16         6.3966   -7.0314   -4.0663 C.ar      1 <0>        -0.0829
     19 C17         6.9203   -6.6413   -2.8466 C.ar      1 <0>        -0.0884
     20 Br1         8.7123   -6.0484   -2.7328 Br        1 <0>        -0.0607
     21 C18         7.3281   -4.3098    1.0385 C.3       1 <0>        -0.0104
     22 N1          8.7527   -4.6596    0.9611 N.4       1 <0>        -0.6413
     23 H2         -1.2295    1.1726    0.0267 H         1 <0>         0.1276
     24 H3          0.7559    2.6259   -0.0376 H         1 <0>         0.1327
     25 H4          3.0074    1.6340   -0.1134 H         1 <0>         0.1304
     26 H5          1.2792   -2.2744   -0.0673 H         1 <0>         0.1249
     27 H6         -0.9689   -1.2748    0.0078 H         1 <0>         0.1270
     28 H7          3.1425   -2.7531    0.7618 H         1 <0>         0.0639
     29 H8          3.0842   -2.7487   -1.0172 H         1 <0>         0.0648
     30 H9          5.5375   -2.3971   -1.0967 H         1 <0>         0.0804
     31 H10         5.5958   -2.4015    0.6823 H         1 <0>         0.0736
     32 H11         4.6935   -4.7111    0.7061 H         1 <0>         0.0820
     33 H12         4.6352   -4.7066   -1.0729 H         1 <0>         0.0918
     34 H13         7.7472   -6.5856   -0.3161 H         1 <0>         0.0735
     35 H14         6.1354   -6.7357    0.4240 H         1 <0>         0.0981
     36 H15         4.2078   -7.1533   -0.9070 H         1 <0>         0.1348
     37 H16         3.2738   -7.8385   -3.0794 H         1 <0>         0.1364
     38 H17         4.6753   -7.7607   -5.1025 H         1 <0>         0.1388
     39 H18         7.0112   -6.9973   -4.9537 H         1 <0>         0.1382
     40 H19         7.2247   -3.2315    1.1597 H         1 <0>         0.1423
     41 H20         6.8754   -4.8163    1.8909 H         1 <0>         0.1407
     42 H21         9.1503   -4.2670    0.1210 H         1 <0>         0.4336
     43 H22         9.2343   -4.2885    1.7664 H         1 <0>         0.4407
     44 H23         8.8521   -5.6635    0.9429 H         1 <0>         0.4332
@<TRIPOS>BOND
     1    1    6 ar
     2    1    2 ar
     3    1   23 1
     4    2    3 ar
     5    2   24 1
     6    3    4 ar
     7    3   25 1
     8    4    5 ar
     9    4    7 1
    10    5    6 ar
    11    5   26 1
    12    6   27 1
    13    7    8 1
    14    8    9 1
    15    8   28 1
    16    8   29 1
    17    9   10 1
    18    9   30 1
    19    9   31 1
    20   10   11 1
    21   10   32 1
    22   10   33 1
    23   11   12 1
    24   11   13 1
    25   11   21 1
    26   13   14 1
    27   13   34 1
    28   13   35 1
    29   14   19 ar
    30   14   15 ar
    31   15   16 ar
    32   15   36 1
    33   16   17 ar
    34   16   37 1
    35   17   18 ar
    36   17   38 1
    37   18   19 ar
    38   18   39 1
    39   19   20 1
    40   21   22 1
    41   21   40 1
    42   21   41 1
    43   22   42 1
    44   22   43 1
    45   22   44 1
@<TRIPOS>MOLECULE
ZINC09236362
   45    48     0     0     0
SMALL
USER_CHARGES
N-(2-fluorophenyl)-7-methyl-4-(p-tolyl)-2-thia-5,6,8,9-tetrazabicyclo[4.3.0]nona-7,9-diene-3-carboxamide
@<TRIPOS>ATOM
      1 C1         -4.1471   -0.4137   -6.1712 C.3       1 <0>        -0.1213
      2 C2         -4.3168   -0.3267   -4.6763 C.ar      1 <0>        -0.0661
      3 C3         -5.2183   -1.1545   -4.0336 C.ar      1 <0>        -0.1216
      4 C4         -5.3736   -1.0750   -2.6624 C.ar      1 <0>        -0.0935
      5 C5         -4.6277   -0.1675   -1.9337 C.ar      1 <0>        -0.1134
      6 C6         -3.7303    0.6642   -2.5770 C.ar      1 <0>        -0.0831
      7 C7         -3.5712    0.5811   -3.9477 C.ar      1 <0>        -0.1218
      8 C8         -4.7973   -0.0805   -0.4388 C.3       1 <0>         0.1371
      9 H1         -5.7518   -0.5275   -0.1609 H         1 <0>         0.0899
     10 C9         -3.6591   -0.8481    0.2463 C.3       1 <0>        -0.1233
     11 H2         -3.5424   -1.8279   -0.2170 H         1 <0>         0.1560
     12 S1         -4.0966   -1.0447    2.0002 S.3       1 <0>         0.0801
     13 C10        -4.6674    0.5997    2.2938 C.2       1 <0>         0.1286
     14 N1         -4.9169    1.1736    3.4379 N.2       1 <0>        -0.2444
     15 N2         -5.3239    2.3788    3.2334 N.2       1 <0>        -0.2767
     16 C11        -5.3521    2.6326    1.9538 C.2       1 <0>         0.1933
     17 N3         -4.9277    1.5076    1.3067 N.pl3     1 <0>        -0.2957
     18 N4         -4.7845    1.3250   -0.0313 N.3       1 <0>        -0.4205
     19 C12        -5.7741    3.9279    1.3093 C.3       1 <0>        -0.0705
     20 C13        -2.3740   -0.0704    0.1252 C.2       1 <0>         0.5276
     21 O1         -2.3961    1.1423    0.1321 O.2       1 <0>        -0.4650
     22 N5         -1.2001   -0.7224    0.0092 N.am      1 <0>        -0.6612
     23 C14         0.0027   -0.0050    0.0132 C.ar      1 <0>         0.1221
     24 C15         0.0691    1.2382    0.6270 C.ar      1 <0>        -0.1036
     25 C16         1.2568    1.9438    0.6290 C.ar      1 <0>        -0.1053
     26 C17         2.3796    1.4139    0.0202 C.ar      1 <0>        -0.1074
     27 C18         2.3187    0.1758   -0.5921 C.ar      1 <0>        -0.1316
     28 C19         1.1330   -0.5363   -0.5980 C.ar      1 <0>         0.0667
     29 F1          1.0732   -1.7461   -1.1962 F         1 <0>        -0.1381
     30 H3         -4.8429    0.2709   -6.6562 H         1 <0>         0.0750
     31 H4         -3.1255   -0.1424   -6.4373 H         1 <0>         0.0695
     32 H5         -4.3503   -1.4325   -6.5012 H         1 <0>         0.0697
     33 H6         -5.8011   -1.8635   -4.6029 H         1 <0>         0.1282
     34 H7         -6.0780   -1.7217   -2.1603 H         1 <0>         0.1268
     35 H8         -3.1507    1.3763   -2.0083 H         1 <0>         0.1411
     36 H9         -2.8671    1.2281   -4.4498 H         1 <0>         0.1257
     37 H10        -5.4716    1.8568   -0.5444 H         1 <0>         0.3768
     38 H11        -6.8449    3.9014    1.1075 H         1 <0>         0.0878
     39 H12        -5.5513    4.7572    1.9807 H         1 <0>         0.1022
     40 H13        -5.2312    4.0620    0.3737 H         1 <0>         0.0844
     41 H14        -1.1884   -1.6884   -0.0771 H         1 <0>         0.4138
     42 H15        -0.8082    1.6556    1.0987 H         1 <0>         0.1526
     43 H16         1.3083    2.9111    1.1066 H         1 <0>         0.1337
     44 H17         3.3064    1.9684    0.0234 H         1 <0>         0.1353
     45 H18         3.1975   -0.2355   -1.0664 H         1 <0>         0.1403
@<TRIPOS>BOND
     1    1    2 1
     2    1   30 1
     3    1   31 1
     4    1   32 1
     5    2    7 ar
     6    2    3 ar
     7    3    4 ar
     8    3   33 1
     9    4    5 ar
    10    4   34 1
    11    5    6 ar
    12    5    8 1
    13    6    7 ar
    14    6   35 1
    15    7   36 1
    16    8    9 1
    17    8   18 1
    18    8   10 1
    19   10   11 1
    20   10   12 1
    21   10   20 1
    22   12   13 1
    23   13   17 1
    24   13   14 2
    25   14   15 1
    26   15   16 2
    27   16   17 1
    28   16   19 1
    29   17   18 1
    30   18   37 1
    31   19   38 1
    32   19   39 1
    33   19   40 1
    34   20   21 2
    35   20   22 am
    36   22   23 1
    37   22   41 1
    38   23   28 ar
    39   23   24 ar
    40   24   25 ar
    41   24   42 1
    42   25   26 ar
    43   25   43 1
    44   26   27 ar
    45   26   44 1
    46   27   28 ar
    47   27   45 1
    48   28   29 1
@<TRIPOS>MOLECULE
ZINC24642334
   47    50     0     0     0
SMALL
USER_CHARGES
N-[(4S)-4-ethyl-2,5-dioxo-4-phenyl-imidazolidin-1-yl]-3-methyl-benzothiophene-2-carboxamide
@<TRIPOS>ATOM
      1 C1         -1.2605    7.3968   -0.7598 C.3       1 <0>        -0.1617
      2 C2         -1.3248    5.8707   -0.6719 C.3       1 <0>        -0.1188
      3 C3         -0.0705    5.3471    0.0307 C.3       1 <0>         0.1720
      4 C4          0.0048    5.8736    1.4501 C.2       1 <0>         0.5361
      5 O1         -0.7906    5.6830    2.3450 O.2       1 <0>        -0.4441
      6 N1          1.1403    6.5969    1.5107 N.am      1 <0>        -0.3702
      7 C5          1.7861    6.6006    0.3390 C.2       1 <0>         0.7188
      8 O2          2.8345    7.1848    0.1472 O.2       1 <0>        -0.5223
      9 N2          1.1435    5.8854   -0.6068 N.am      1 <0>        -0.7199
     10 N3          1.5893    7.2623    2.6589 N.am      1 <0>        -0.5122
     11 C6          2.6177    6.7594    3.3703 C.2       1 <0>         0.6182
     12 O3          3.1559    5.7278    3.0154 O.2       1 <0>        -0.4958
     13 C7          3.0888    7.4575    4.5752 C.2       1 <0>        -0.2097
     14 C8          4.0968    7.1073    5.4175 C.2       1 <0>         0.0015
     15 C9          4.3998    7.9192    6.5253 C.ar      1 <0>        -0.1067
     16 C10         5.4070    7.7269    7.5060 C.ar      1 <0>        -0.0563
     17 C11         5.5625    8.6110    8.5246 C.ar      1 <0>        -0.1266
     18 C12         4.7495    9.7316    8.6475 C.ar      1 <0>        -0.0739
     19 C13         3.7575    9.9573    7.7152 C.ar      1 <0>        -0.0850
     20 C14         3.5872    9.0680    6.6754 C.ar      1 <0>        -0.0894
     21 S1          2.4735    8.9692    5.2967 S.3       1 <0>         0.0627
     22 C15         4.8917    5.8528    5.1619 C.3       1 <0>        -0.1131
     23 C16        -0.0501    3.8402    0.0223 C.ar      1 <0>        -0.1050
     24 C17         1.1563    3.1654    0.0081 C.ar      1 <0>        -0.0935
     25 C18         1.1750    1.7832    0.0004 C.ar      1 <0>        -0.1177
     26 C19        -0.0126    1.0758    0.0080 C.ar      1 <0>        -0.1043
     27 C20        -1.2190    1.7506    0.0173 C.ar      1 <0>        -0.1191
     28 C21        -1.2377    3.1328    0.0294 C.ar      1 <0>        -0.0910
     29 H1         -2.1622    7.7733   -1.2649 H         1 <0>         0.0732
     30 H2         -0.3689    7.6939   -1.3315 H         1 <0>         0.0653
     31 H3         -1.2041    7.8204    0.2538 H         1 <0>         0.0497
     32 H4         -2.2164    5.5736   -0.1002 H         1 <0>         0.0939
     33 H5         -1.3812    5.4471   -1.6855 H         1 <0>         0.0964
     34 H6          1.3551    5.6624   -1.6630 H         1 <0>         0.4760
     35 H7          1.1025    8.1951    2.9798 H         1 <0>         0.4511
     36 H8          6.0573    6.8670    7.4417 H         1 <0>         0.1320
     37 H9          6.3372    8.4395    9.2573 H         1 <0>         0.1329
     38 H10         4.8933   10.4208    9.4665 H         1 <0>         0.1399
     39 H11         3.1188   10.8241    7.7996 H         1 <0>         0.1370
     40 H12         5.6571    5.7381    5.9436 H         1 <0>         0.0690
     41 H13         5.3795    5.9218    4.1784 H         1 <0>         0.0867
     42 H14         4.2187    4.9828    5.1771 H         1 <0>         0.0852
     43 H15         2.0842    3.7181    0.0025 H         1 <0>         0.1243
     44 H16         2.1175    1.2560   -0.0111 H         1 <0>         0.1272
     45 H17         0.0021   -0.0041    0.0020 H         1 <0>         0.1268
     46 H18        -2.1469    1.1980    0.0188 H         1 <0>         0.1291
     47 H19        -2.1802    3.6600    0.0409 H         1 <0>         0.1307
@<TRIPOS>BOND
     1    1    2 1
     2    1   29 1
     3    1   30 1
     4    1   31 1
     5    2    3 1
     6    2   32 1
     7    2   33 1
     8    3    9 1
     9    3    4 1
    10    3   23 1
    11    4    5 2
    12    4    6 am
    13    6    7 am
    14    6   10 1
    15    7    8 2
    16    7    9 am
    17    9   34 1
    18   10   11 am
    19   10   35 1
    20   11   12 2
    21   11   13 1
    22   13   21 1
    23   13   14 2
    24   14   15 1
    25   14   22 1
    26   15   20 ar
    27   15   16 ar
    28   16   17 ar
    29   16   36 1
    30   17   18 ar
    31   17   37 1
    32   18   19 ar
    33   18   38 1
    34   19   20 ar
    35   19   39 1
    36   20   21 1
    37   22   40 1
    38   22   41 1
    39   22   42 1
    40   23   28 ar
    41   23   24 ar
    42   24   25 ar
    43   24   43 1
    44   25   26 ar
    45   25   44 1
    46   26   27 ar
    47   26   45 1
    48   27   28 ar
    49   27   46 1
    50   28   47 1
@<TRIPOS>MOLECULE
ZINC40041523
   49    52     0     0     0
SMALL
USER_CHARGES

@<TRIPOS>ATOM
      1 C1         -0.0184    1.5028    0.0103 C.3       1 <0>        -0.1156
      2 C2          0.0021   -0.0041    0.0020 C.ar      1 <0>        -0.1013
      3 C3          0.0058   -0.6891   -1.2051 C.ar      1 <0>        -0.0599
      4 C4          0.0211   -2.0654   -1.2351 C.ar      1 <0>        -0.0926
      5 C5          0.0348   -2.7901   -0.0434 C.ar      1 <0>         0.1319
      6 C6          0.0374   -2.0861    1.1720 C.ar      1 <0>        -0.2024
      7 C7          0.0226   -0.6916    1.1835 C.ar      1 <0>        -0.0408
      8 C8          0.0678   -2.8487    2.4456 C.2       1 <0>         0.4557
      9 O1         -0.0967   -2.3321    3.5366 O.2       1 <0>        -0.4303
     10 C9          0.3141   -4.2833    2.2649 C.2       1 <0>        -0.2496
     11 C10         0.2940   -4.8502    1.0224 C.2       1 <0>         0.0903
     12 O2          0.0426   -4.1415   -0.0959 O.3       1 <0>        -0.1785
     13 C11         0.5826   -6.2880    1.1656 C.2       1 <0>         0.5712
     14 O3          0.6426   -7.0806    0.2468 O.2       1 <0>        -0.4835
     15 N1          0.7704   -6.5960    2.4651 N.am      1 <0>        -0.5917
     16 C12         0.6143   -5.3623    3.2530 C.3       1 <0>         0.2305
     17 H1          1.5378   -5.1373    3.7864 H         1 <0>         0.1214
     18 C13        -0.5270   -5.5080    4.2263 C.ar      1 <0>        -0.1087
     19 C14        -1.6682   -6.1941    3.8540 C.ar      1 <0>        -0.0825
     20 C15        -2.7160   -6.3287    4.7443 C.ar      1 <0>        -0.1451
     21 C16        -2.6222   -5.7751    6.0129 C.ar      1 <0>         0.1171
     22 C17        -1.4758   -5.0876    6.3842 C.ar      1 <0>        -0.1421
     23 C18        -0.4288   -4.9602    5.4920 C.ar      1 <0>        -0.0679
     24 O4         -3.6517   -5.9058    6.8903 O.3       1 <0>        -0.4983
     25 C19         1.0759   -7.9255    2.9992 C.3       1 <0>         0.1427
     26 C20         2.5928   -8.1204    3.0453 C.3       1 <0>        -0.1427
     27 C21         2.9118   -9.5089    3.6031 C.3       1 <0>         0.0799
     28 O5          4.3285   -9.6910    3.6461 O.3       1 <0>        -0.5734
     29 C22         0.0227   -2.7896   -2.5567 C.3       1 <0>        -0.1147
     30 H2          1.0042    1.8801    0.0026 H         1 <0>         0.0762
     31 H3         -0.5455    1.8639   -0.8728 H         1 <0>         0.0722
     32 H4         -0.5286    1.8543    0.9071 H         1 <0>         0.0721
     33 H5         -0.0039   -0.1355   -2.1324 H         1 <0>         0.1431
     34 H6          0.0237   -0.1571    2.1219 H         1 <0>         0.1446
     35 H7         -1.7407   -6.6249    2.8663 H         1 <0>         0.1216
     36 H8         -3.6075   -6.8641    4.4528 H         1 <0>         0.1315
     37 H9         -1.4005   -4.6557    7.3712 H         1 <0>         0.1338
     38 H10         0.4656   -4.4289    5.7821 H         1 <0>         0.1323
     39 H11        -3.5970   -6.6952    7.4461 H         1 <0>         0.3931
     40 H12         0.6673   -8.0154    4.0057 H         1 <0>         0.0952
     41 H13         0.6312   -8.6859    2.3573 H         1 <0>         0.0961
     42 H14         3.0014   -8.0305    2.0388 H         1 <0>         0.0785
     43 H15         3.0375   -7.3600    3.6872 H         1 <0>         0.0768
     44 H16         2.5032   -9.5988    4.6096 H         1 <0>         0.0494
     45 H17         2.4671  -10.2693    2.9611 H         1 <0>         0.0503
     46 H18         4.6042  -10.5517    3.9901 H         1 <0>         0.3840
     47 H19         1.0507   -2.9526   -2.8805 H         1 <0>         0.0782
     48 H20        -0.4798   -3.7504   -2.4451 H         1 <0>         0.0758
     49 H21        -0.5017   -2.1895   -3.3004 H         1 <0>         0.0759
@<TRIPOS>BOND
     1    1    2 1
     2    1   30 1
     3    1   31 1
     4    1   32 1
     5    2    7 ar
     6    2    3 ar
     7    3    4 ar
     8    3   33 1
     9    4    5 ar
    10    4   29 1
    11    5   12 1
    12    5    6 ar
    13    6    7 ar
    14    6    8 1
    15    7   34 1
    16    8    9 2
    17    8   10 1
    18   10   16 1
    19   10   11 2
    20   11   12 1
    21   11   13 1
    22   13   14 2
    23   13   15 am
    24   15   16 1
    25   15   25 1
    26   16   17 1
    27   16   18 1
    28   18   23 ar
    29   18   19 ar
    30   19   20 ar
    31   19   35 1
    32   20   21 ar
    33   20   36 1
    34   21   22 ar
    35   21   24 1
    36   22   23 ar
    37   22   37 1
    38   23   38 1
    39   24   39 1
    40   25   26 1
    41   25   40 1
    42   25   41 1
    43   26   27 1
    44   26   42 1
    45   26   43 1
    46   27   28 1
    47   27   44 1
    48   27   45 1
    49   28   46 1
    50   29   47 1
    51   29   48 1
    52   29   49 1
@<TRIPOS>MOLECULE
ZINC32409482
   39    41     0     0     0
SMALL
USER_CHARGES

@<TRIPOS>ATOM
      1 C1         -0.0184    1.5028    0.0103 C.3       1 <0>        -0.1331
      2 C2          0.0021   -0.0041    0.0020 C.ar      1 <0>        -0.0116
      3 C3          0.0058   -0.6888   -1.1988 C.ar      1 <0>        -0.1276
      4 C4          0.0246   -2.0709   -1.2066 C.ar      1 <0>        -0.0105
      5 C5          0.0396   -2.7693   -0.0135 C.ar      1 <0>        -0.6788
      6 C6          0.0359   -2.0859    1.1877 C.ar      1 <0>        -0.0031
      7 C7          0.0229   -0.7022    1.1960 C.ar      1 <0>        -0.0602
      8 Cl1         0.0249    0.1571    2.7045 Cl        1 <0>        -0.0468
      9 S1          0.0630   -4.5311   -0.0244 S.o2      1 <0>         2.6944
     10 O1         -0.4763   -4.9521    1.2211 O.2       1 <0>        -0.9312
     11 O2         -0.4886   -4.9369   -1.2695 O.2       1 <0>        -0.9301
     12 N1          1.6512   -4.9997   -0.0351 N.pl3     1 <0>        -0.9369
     13 C8          2.4522   -5.2243   -1.2414 C.3       1 <0>         0.1080
     14 C9          3.8418   -5.6393   -0.7310 C.3       1 <0>        -0.0824
     15 C10         3.7151   -5.6166    0.7757 C.ar      1 <0>        -0.1505
     16 C11         2.4240   -5.2325    1.1037 C.ar      1 <0>         0.2182
     17 C12         2.0679   -5.1336    2.4502 C.ar      1 <0>        -0.1752
     18 C13         2.9916   -5.4102    3.4357 C.ar      1 <0>         0.0149
     19 C14         4.2778   -5.7883    3.0979 C.ar      1 <0>        -0.7014
     20 C15         4.6355   -5.8975    1.7666 C.ar      1 <0>         0.0293
     21 S2          5.4553   -6.1404    4.3605 S.o2      1 <0>         2.7057
     22 O3          6.7394   -5.9427    3.7850 O.2       1 <0>        -0.9629
     23 O4          5.0257   -5.4439    5.5222 O.2       1 <0>        -0.9594
     24 N2          5.3350   -7.7556    4.7056 N.pl3     1 <0>        -1.2484
     25 H1          1.0042    1.8801    0.0026 H         1 <0>         0.0882
     26 H2         -0.5455    1.8639   -0.8728 H         1 <0>         0.0812
     27 H3         -0.5286    1.8543    0.9071 H         1 <0>         0.0823
     28 H4         -0.0063   -0.1438   -2.1311 H         1 <0>         0.1471
     29 H5          0.0271   -2.6054   -2.1450 H         1 <0>         0.1488
     30 H6          0.0474   -2.6316    2.1196 H         1 <0>         0.1512
     31 H7          2.0159   -6.0226   -1.8418 H         1 <0>         0.0985
     32 H8          2.5223   -4.3064   -1.8251 H         1 <0>         0.0895
     33 H9          4.0899   -6.6428   -1.0767 H         1 <0>         0.0996
     34 H10         4.5967   -4.9252   -1.0600 H         1 <0>         0.0985
     35 H11         1.0648   -4.8387    2.7209 H         1 <0>         0.1541
     36 H12         2.7095   -5.3310    4.4752 H         1 <0>         0.1528
     37 H13         5.6403   -6.1914    1.5011 H         1 <0>         0.1480
     38 H14         6.1140   -8.2453    5.0125 H         1 <0>         0.4220
     39 H15         4.4855   -8.2120    4.6008 H         1 <0>         0.4178
@<TRIPOS>BOND
     1    1    2 1
     2    1   25 1
     3    1   26 1
     4    1   27 1
     5    2    7 ar
     6    2    3 ar
     7    3    4 ar
     8    3   28 1
     9    4    5 ar
    10    4   29 1
    11    5    6 ar
    12    5    9 1
    13    6    7 ar
    14    6   30 1
    15    7    8 1
    16    9   10 2
    17    9   11 2
    18    9   12 1
    19   12   16 1
    20   12   13 1
    21   13   14 1
    22   13   31 1
    23   13   32 1
    24   14   15 1
    25   14   33 1
    26   14   34 1
    27   15   20 ar
    28   15   16 ar
    29   16   17 ar
    30   17   18 ar
    31   17   35 1
    32   18   19 ar
    33   18   36 1
    34   19   20 ar
    35   19   21 1
    36   20   37 1
    37   21   22 2
    38   21   23 2
    39   21   24 1
    40   24   38 1
    41   24   39 1
@<TRIPOS>MOLECULE
ZINC66996528
   51    54     0     0     0
SMALL
USER_CHARGES

@<TRIPOS>ATOM
      1 C1         -1.4614    1.5045    0.9505 C.3       1 <0>        -0.1167
      2 C2         -1.2959    0.0246    0.7190 C.ar      1 <0>        -0.1201
      3 C3         -2.0840   -0.6197   -0.2137 C.ar      1 <0>        -0.0660
      4 C4         -1.9317   -1.9772   -0.4259 C.ar      1 <0>        -0.1693
      5 C5         -0.9920   -2.6922    0.2961 C.ar      1 <0>         0.1193
      6 C6         -0.1975   -2.0521    1.2352 C.ar      1 <0>        -0.1444
      7 C7         -0.3456   -0.6892    1.4410 C.ar      1 <0>         0.1912
      8 N1          0.4520   -0.0136    2.3720 N.am      1 <0>        -0.5362
      9 C8          1.2365   -0.7968    3.3362 C.3       1 <0>         0.1139
     10 C9          1.9056   -1.9468    2.5721 C.3       1 <0>        -0.1363
     11 C10         0.8119   -2.8596    2.0077 C.3       1 <0>        -0.0783
     12 C11         0.4998    1.3333    2.3833 C.2       1 <0>         0.4644
     13 O1          0.3559    1.9544    1.3505 O.2       1 <0>        -0.4349
     14 C12         0.7298    2.0615    3.6669 C.2       1 <0>         0.5101
     15 O2          0.7748    1.4480    4.7130 O.2       1 <0>        -0.5056
     16 N2          0.8873    3.4001    3.6633 N.am      1 <0>        -0.6962
     17 C13         1.1129    4.1144    4.9223 C.3       1 <0>         0.1890
     18 H1          1.7119    3.4945    5.5895 H         1 <0>         0.1042
     19 C14        -0.2327    4.4216    5.5826 C.3       1 <0>        -0.1613
     20 C15         1.8422    5.4036    4.6447 C.ar      1 <0>        -0.1175
     21 C16         1.5078    6.1653    3.5398 C.ar      1 <0>        -0.0764
     22 C17         2.1714    7.3463    3.2800 C.ar      1 <0>        -0.1309
     23 C18         3.1853    7.7810    4.1316 C.ar      1 <0>         0.1476
     24 C19         3.5115    7.0074    5.2382 C.ar      1 <0>        -0.1378
     25 C20         2.8443    5.8314    5.4978 C.ar      1 <0>        -0.0491
     26 C21         4.6288    7.7342    5.9507 C.3       1 <0>        -0.1161
     27 C22         4.8597    8.9706    5.1080 C.2       1 <0>         0.5282
     28 O3          5.6757    9.8431    5.3175 O.2       1 <0>        -0.4983
     29 N3          3.9905    8.9196    4.0846 N.am      1 <0>        -0.6611
     30 F1         -0.8485   -4.0190    0.0854 F         1 <0>        -0.1336
     31 H2         -0.8951    2.0553    0.1995 H         1 <0>         0.1150
     32 H3         -2.5164    1.7682    0.8758 H         1 <0>         0.0525
     33 H4         -1.0924    1.7604    1.9438 H         1 <0>         0.0720
     34 H5         -2.8190   -0.0638   -0.7768 H         1 <0>         0.1381
     35 H6         -2.5475   -2.4809   -1.1563 H         1 <0>         0.1385
     36 H7          1.9981   -0.1645    3.7926 H         1 <0>         0.0985
     37 H8          0.5791   -1.1989    4.1070 H         1 <0>         0.0854
     38 H9          2.5091   -1.5429    1.7592 H         1 <0>         0.0750
     39 H10         2.5394   -2.5167    3.2516 H         1 <0>         0.0930
     40 H11         0.3085   -3.3809    2.8219 H         1 <0>         0.0851
     41 H12         1.2722   -3.5909    1.3432 H         1 <0>         0.0848
     42 H13         0.8512    3.8904    2.8272 H         1 <0>         0.4108
     43 H14        -0.7602    3.4891    5.7834 H         1 <0>         0.0672
     44 H15        -0.0648    4.9531    6.5193 H         1 <0>         0.0744
     45 H16        -0.8317    5.0414    4.9154 H         1 <0>         0.0626
     46 H17         0.7229    5.8333    2.8764 H         1 <0>         0.1310
     47 H18         1.9049    7.9351    2.4147 H         1 <0>         0.1314
     48 H19         3.1055    5.2415    6.3640 H         1 <0>         0.1349
     49 H20         4.3220    8.0113    6.9593 H         1 <0>         0.1267
     50 H21         5.5277    7.1183    5.9796 H         1 <0>         0.1264
     51 H22         3.9297    9.5967    3.3927 H         1 <0>         0.4151
@<TRIPOS>BOND
     1    1    2 1
     2    1   31 1
     3    1   32 1
     4    1   33 1
     5    2    7 ar
     6    2    3 ar
     7    3    4 ar
     8    3   34 1
     9    4    5 ar
    10    4   35 1
    11    5    6 ar
    12    5   30 1
    13    6   11 1
    14    6    7 ar
    15    7    8 1
    16    8    9 1
    17    8   12 am
    18    9   10 1
    19    9   36 1
    20    9   37 1
    21   10   11 1
    22   10   38 1
    23   10   39 1
    24   11   40 1
    25   11   41 1
    26   12   13 2
    27   12   14 1
    28   14   15 2
    29   14   16 am
    30   16   17 1
    31   16   42 1
    32   17   18 1
    33   17   19 1
    34   17   20 1
    35   19   43 1
    36   19   44 1
    37   19   45 1
    38   20   25 ar
    39   20   21 ar
    40   21   22 ar
    41   21   46 1
    42   22   23 ar
    43   22   47 1
    44   23   29 1
    45   23   24 ar
    46   24   25 ar
    47   24   26 1
    48   25   48 1
    49   26   27 1
    50   26   49 1
    51   26   50 1
    52   27   28 2
    53   27   29 am
    54   29   51 1
@<TRIPOS>MOLECULE
ZINC14741715
   76    81     0     0     0
SMALL
USER_CHARGES

@<TRIPOS>ATOM
      1 C1         -0.3941    1.6725   -0.2926 C.3       1 <0>         0.0730
      2 N1         -0.2533    0.2161   -0.2201 N.pl3     1 <0>        -0.2539
      3 C2         -0.2022   -0.6063   -1.2809 C.2       1 <0>         0.0216
      4 C3         -0.0715   -1.8688   -0.8040 C.2       1 <0>        -0.1566
      5 C4         -0.0450   -1.7518    0.5958 C.2       1 <0>        -0.0090
      6 N2         -0.1549   -0.4632    0.8703 N.2       1 <0>        -0.2503
      7 C5          0.0858   -2.8535    1.5709 C.2       1 <0>         0.6194
      8 O1          0.1844   -4.0011    1.1819 O.2       1 <0>        -0.5221
      9 N3          0.0959   -2.5866    2.8920 N.am      1 <0>        -0.7197
     10 C6          0.2257   -3.6793    3.8591 C.3       1 <0>         0.0966
     11 C7          0.2096   -3.1086    5.2786 C.3       1 <0>        -0.0232
     12 N4          0.3397   -4.2044    6.2484 N.4       1 <0>        -0.3786
     13 C8         -0.8367   -5.0775    6.1585 C.3       1 <0>        -0.0147
     14 C9         -0.6690   -6.2650    7.1089 C.3       1 <0>        -0.1458
     15 C10        -0.5237   -5.7476    8.5429 C.3       1 <0>        -0.1409
     16 C11         0.6614   -4.7799    8.6084 C.3       1 <0>        -0.1468
     17 C12         0.4444   -3.6475    7.6024 C.3       1 <0>        -0.0062
     18 C13         0.0187   -3.1008   -1.6614 C.3       1 <0>        -0.0504
     19 C14        -0.4629   -2.7411   -3.0736 C.3       1 <0>         0.0193
     20 H1         -1.5397   -2.5731   -3.0583 H         1 <0>         0.1444
     21 C15         0.2453   -1.4689   -3.5468 C.3       1 <0>        -0.1362
     22 C16        -0.2686   -0.2648   -2.7473 C.3       1 <0>        -0.0476
     23 N5         -0.1526   -3.8445   -3.9924 N.4       1 <0>        -0.5065
     24 C17        -0.9392   -5.0279   -3.6198 C.3       1 <0>         0.0290
     25 C18        -2.4253   -4.7452   -3.8485 C.3       1 <0>        -0.0966
     26 H2         -2.7323   -3.8973   -3.2362 H         1 <0>         0.0957
     27 C19        -3.2446   -5.9777   -3.4605 C.3       1 <0>        -0.1083
     28 C20        -2.8137   -7.1679   -4.3200 C.3       1 <0>        -0.0909
     29 C21        -1.3275   -7.4506   -4.0913 C.3       1 <0>        -0.1091
     30 C22        -0.5083   -6.2180   -4.4793 C.3       1 <0>        -0.0973
     31 H3          0.5505   -6.4194   -4.3164 H         1 <0>         0.1039
     32 C23        -0.7443   -5.8929   -5.9556 C.3       1 <0>        -0.1177
     33 C24        -2.2304   -5.6102   -6.1844 C.3       1 <0>         0.1345
     34 C25        -2.6613   -4.4201   -5.3248 C.3       1 <0>        -0.1564
     35 C26        -3.0497   -6.8427   -5.7963 C.3       1 <0>        -0.1449
     36 O2         -2.4508   -5.3066   -7.5632 O.3       1 <0>        -0.5534
     37 H4          0.5935    2.1310   -0.3419 H         1 <0>         0.0984
     38 H5         -0.9631    1.9386   -1.1834 H         1 <0>         0.1051
     39 H6         -0.9175    2.0314    0.5936 H         1 <0>         0.1077
     40 H7          0.0173   -1.6710    3.2024 H         1 <0>         0.4165
     41 H8         -0.6060   -4.3732    3.7370 H         1 <0>         0.0933
     42 H9          1.1654   -4.2050    3.6895 H         1 <0>         0.0934
     43 H10         1.0413   -2.4147    5.4007 H         1 <0>         0.1402
     44 H11        -0.7301   -2.5830    5.4482 H         1 <0>         0.1384
     45 H12        -1.7283   -4.5147    6.4348 H         1 <0>         0.1312
     46 H13        -0.9406   -5.4424    5.1367 H         1 <0>         0.1306
     47 H14        -1.5443   -6.9112    7.0420 H         1 <0>         0.1140
     48 H15         0.2223   -6.8287    6.8333 H         1 <0>         0.0890
     49 H16        -1.4355   -5.2276    8.8369 H         1 <0>         0.0829
     50 H17        -0.3474   -6.5860    9.2168 H         1 <0>         0.0969
     51 H18         0.7371   -4.3646    9.6133 H         1 <0>         0.1155
     52 H19         1.5803   -5.3128    8.3639 H         1 <0>         0.0891
     53 H20         1.2864   -2.9566    7.6465 H         1 <0>         0.1323
     54 H21        -0.4745   -3.1152    7.8479 H         1 <0>         0.1307
     55 H22         1.0520   -3.4453   -1.7022 H         1 <0>         0.0989
     56 H23        -0.6144   -3.8848   -1.2459 H         1 <0>         0.1066
     57 H24         1.3196   -1.5736   -3.3947 H         1 <0>         0.0986
     58 H25         0.0430   -1.3138   -4.6066 H         1 <0>         0.1023
     59 H26        -1.2998   -0.0505   -3.0282 H         1 <0>         0.1012
     60 H27         0.3563    0.6048   -2.9505 H         1 <0>         0.1068
     61 H28        -0.3827   -3.5712   -4.9360 H         1 <0>         0.4262
     62 H29        -0.7711   -5.2595   -2.5681 H         1 <0>         0.1462
     63 H30        -3.0764   -6.2093   -2.4087 H         1 <0>         0.0783
     64 H31        -4.3033   -5.7763   -3.6234 H         1 <0>         0.0865
     65 H32        -3.3973   -8.0459   -4.0435 H         1 <0>         0.0928
     66 H33        -1.1594   -7.6822   -3.0395 H         1 <0>         0.0796
     67 H34        -1.0205   -8.2984   -4.7036 H         1 <0>         0.0897
     68 H35        -0.1606   -5.0148   -6.2321 H         1 <0>         0.0651
     69 H36        -0.4373   -6.7408   -6.5680 H         1 <0>         0.1010
     70 H37        -3.7201   -4.2187   -5.4878 H         1 <0>         0.0954
     71 H38        -2.0777   -3.5420   -5.6013 H         1 <0>         0.0650
     72 H39        -2.7427   -7.6906   -6.4086 H         1 <0>         0.0833
     73 H40        -4.1084   -6.6413   -5.9592 H         1 <0>         0.0761
     74 H41        -3.3735   -5.1162   -7.7814 H         1 <0>         0.3883
     75 H42         0.8309   -4.0629   -3.9358 H         1 <0>         0.4272
     76 H43         1.1697   -4.7392    6.0406 H         1 <0>         0.4252
@<TRIPOS>BOND
     1    1    2 1
     2    1   37 1
     3    1   38 1
     4    1   39 1
     5    2    6 1
     6    2    3 1
     7    3   22 1
     8    3    4 2
     9    4    5 1
    10    4   18 1
    11    5    6 2
    12    5    7 1
    13    7    8 2
    14    7    9 am
    15    9   10 1
    16    9   40 1
    17   10   11 1
    18   10   41 1
    19   10   42 1
    20   11   12 1
    21   11   43 1
    22   11   44 1
    23   12   17 1
    24   12   13 1
    25   12   76 1
    26   13   14 1
    27   13   45 1
    28   13   46 1
    29   14   15 1
    30   14   47 1
    31   14   48 1
    32   15   16 1
    33   15   49 1
    34   15   50 1
    35   16   17 1
    36   16   51 1
    37   16   52 1
    38   17   53 1
    39   17   54 1
    40   18   19 1
    41   18   55 1
    42   18   56 1
    43   19   20 1
    44   19   21 1
    45   19   23 1
    46   21   22 1
    47   21   57 1
    48   21   58 1
    49   22   59 1
    50   22   60 1
    51   23   24 1
    52   23   61 1
    53   23   75 1
    54   24   30 1
    55   24   25 1
    56   24   62 1
    57   25   26 1
    58   25   34 1
    59   25   27 1
    60   27   28 1
    61   27   63 1
    62   27   64 1
    63   28   35 1
    64   28   29 1
    65   28   65 1
    66   29   30 1
    67   29   66 1
    68   29   67 1
    69   30   31 1
    70   30   32 1
    71   32   33 1
    72   32   68 1
    73   32   69 1
    74   33   34 1
    75   33   35 1
    76   33   36 1
    77   34   70 1
    78   34   71 1
    79   35   72 1
    80   35   73 1
    81   36   74 1
@<TRIPOS>MOLECULE
ZINC39689221
   83    86     0     0     0
SMALL
USER_CHARGES

@<TRIPOS>ATOM
      1 C1          0.1801    1.2639    0.3816 C.3       1 <0>        -0.1553
      2 C2          0.1572   -0.2615    0.2661 C.3       1 <0>        -0.1262
      3 C3         -1.2925   -0.7508    0.2606 C.3       1 <0>        -0.1207
      4 C4         -1.3155   -2.2762    0.1451 C.3       1 <0>        -0.1036
      5 C5         -2.7651   -2.7655    0.1396 C.3       1 <0>        -0.1039
      6 H1         -3.3158   -2.2611   -0.6544 H         1 <0>         0.0972
      7 C6         -3.4143   -2.4519    1.4891 C.3       1 <0>        -0.1546
      8 C7         -2.7922   -4.2535   -0.0972 C.2       1 <0>         0.5439
      9 O1         -1.7542   -4.8627   -0.2469 O.2       1 <0>        -0.5214
     10 N1         -3.9699   -4.9073   -0.1427 N.am      1 <0>        -0.6248
     11 C8         -5.3303   -4.3398    0.0098 C.3       1 <0>         0.1100
     12 C9         -6.1885   -5.0992   -1.0267 C.3       1 <0>        -0.1142
     13 H2         -6.2546   -4.5306   -1.9543 H         1 <0>         0.1109
     14 C10        -5.4407   -6.4223   -1.2616 C.3       1 <0>        -0.0721
     15 C11        -4.1972   -6.3557   -0.3631 C.3       1 <0>         0.1045
     16 C12        -5.0217   -6.5400   -2.7238 C.3       1 <0>        -0.1319
     17 C13        -4.3305   -7.8885   -2.9448 C.3       1 <0>        -0.0131
     18 N2         -5.2504   -8.9758   -2.5894 N.4       1 <0>        -0.5039
     19 C14        -5.5755   -8.9096   -1.1595 C.3       1 <0>        -0.0093
     20 C15        -6.3190   -7.6042   -0.8629 C.3       1 <0>        -0.1437
     21 C16        -7.5659   -5.3631   -0.4750 C.2       1 <0>         0.5225
     22 O2         -7.7218   -5.5199    0.7175 O.2       1 <0>        -0.5099
     23 N3         -8.6245   -5.4249   -1.3069 N.am      1 <0>        -0.7346
     24 C17        -9.9635   -5.6815   -0.7707 C.3       1 <0>         0.1205
     25 C18       -10.9767   -5.7013   -1.9169 C.3       1 <0>        -0.1106
     26 C19       -11.0633   -4.3087   -2.5480 C.3       1 <0>        -0.1449
     27 C20       -12.1349   -4.3154   -3.6403 C.3       1 <0>        -0.0076
     28 N4        -13.4333   -4.6704   -3.0548 N.4       1 <0>        -0.3808
     29 C21       -13.3787   -6.0327   -2.5111 C.3       1 <0>        -0.0103
     30 C22       -12.3549   -6.0921   -1.3754 C.3       1 <0>        -0.1403
     31 C23       -14.4719   -4.5997   -4.0912 C.3       1 <0>         0.0201
     32 C24       -14.5968   -3.1545   -4.6164 C.3       1 <0>        -0.1420
     33 C25       -16.1150   -2.9693   -4.8614 C.3       1 <0>        -0.1255
     34 C26       -16.7489   -3.7362   -3.6744 C.3       1 <0>        -0.1316
     35 C27       -15.8402   -4.9695   -3.4923 C.3       1 <0>        -0.1449
     36 H3          1.2129    1.6125    0.3855 H         1 <0>         0.0574
     37 H4         -0.3475    1.7005   -0.4664 H         1 <0>         0.0533
     38 H5         -0.3086    1.5656    1.3080 H         1 <0>         0.0545
     39 H6          0.6459   -0.5631   -0.6603 H         1 <0>         0.0620
     40 H7          0.6848   -0.6981    1.1141 H         1 <0>         0.0634
     41 H8         -1.7813   -0.4491    1.1870 H         1 <0>         0.0663
     42 H9         -1.8201   -0.3142   -0.5874 H         1 <0>         0.0613
     43 H10        -0.8267   -2.5778   -0.7813 H         1 <0>         0.0715
     44 H11        -0.7879   -2.7128    0.9931 H         1 <0>         0.0722
     45 H12        -2.8636   -2.9563    2.2831 H         1 <0>         0.0650
     46 H13        -3.3947   -1.3757    1.6604 H         1 <0>         0.0781
     47 H14        -4.4471   -2.8005    1.4852 H         1 <0>         0.0595
     48 H15        -5.7056   -4.5179    1.0176 H         1 <0>         0.0999
     49 H16        -5.3238   -3.2724   -0.2110 H         1 <0>         0.0963
     50 H17        -3.3404   -6.8029   -0.8670 H         1 <0>         0.0903
     51 H18        -4.3880   -6.8594    0.5845 H         1 <0>         0.0839
     52 H19        -5.9033   -6.4742   -3.3614 H         1 <0>         0.0927
     53 H20        -4.3321   -5.7329   -2.9709 H         1 <0>         0.1189
     54 H21        -4.0446   -7.9826   -3.9925 H         1 <0>         0.1415
     55 H22        -3.4400   -7.9470   -2.3190 H         1 <0>         0.1364
     56 H23        -6.0978   -8.8879   -3.1300 H         1 <0>         0.4248
     57 H24        -6.2073   -9.7564   -0.8912 H         1 <0>         0.1398
     58 H25        -4.6554   -8.9441   -0.5760 H         1 <0>         0.1357
     59 H26        -6.5440   -7.5475    0.2021 H         1 <0>         0.1259
     60 H27        -7.2473   -7.5765   -1.4335 H         1 <0>         0.0918
     61 H28        -8.4999   -5.2995   -2.2606 H         1 <0>         0.3999
     62 H29        -9.9724   -6.6450   -0.2612 H         1 <0>         0.0812
     63 H30       -10.2290   -4.8947   -0.0646 H         1 <0>         0.0803
     64 H31       -10.6621   -6.4247   -2.6690 H         1 <0>         0.0946
     65 H32       -11.3276   -3.5783   -1.7833 H         1 <0>         0.0943
     66 H33       -10.0997   -4.0466   -2.9851 H         1 <0>         0.1087
     67 H34       -12.1990   -3.3254   -4.0919 H         1 <0>         0.1334
     68 H35       -11.8696   -5.0459   -4.4045 H         1 <0>         0.1278
     69 H36       -14.3610   -6.3106   -2.1291 H         1 <0>         0.1366
     70 H37       -13.0868   -6.7266   -3.2994 H         1 <0>         0.1290
     71 H38       -12.3146   -7.1048   -0.9743 H         1 <0>         0.1167
     72 H39       -12.6460   -5.3987   -0.5864 H         1 <0>         0.0948
     73 H40       -14.2280   -5.2757   -4.9107 H         1 <0>         0.1393
     74 H41       -14.2417   -2.4450   -3.8690 H         1 <0>         0.0863
     75 H42       -14.0430   -3.0379   -5.5479 H         1 <0>         0.0973
     76 H43       -16.3857   -1.9140   -4.8283 H         1 <0>         0.0902
     77 H44       -16.4101   -3.4153   -5.8112 H         1 <0>         0.0845
     78 H45       -16.7413   -3.1207   -2.7749 H         1 <0>         0.0783
     79 H46       -17.7656   -4.0442   -3.9185 H         1 <0>         0.0894
     80 H47       -16.2607   -5.8245   -4.0217 H         1 <0>         0.1035
     81 H48       -15.7336   -5.2015   -2.4326 H         1 <0>         0.0848
     82 H49       -13.6555   -4.0224   -2.3140 H         1 <0>         0.4220
     83 H50        -4.8151   -9.8630   -2.7932 H         1 <0>         0.4369
@<TRIPOS>BOND
     1    1    2 1
     2    1   36 1
     3    1   37 1
     4    1   38 1
     5    2    3 1
     6    2   39 1
     7    2   40 1
     8    3    4 1
     9    3   41 1
    10    3   42 1
    11    4    5 1
    12    4   43 1
    13    4   44 1
    14    5    6 1
    15    5    7 1
    16    5    8 1
    17    7   45 1
    18    7   46 1
    19    7   47 1
    20    8    9 2
    21    8   10 am
    22   10   15 1
    23   10   11 1
    24   11   12 1
    25   11   48 1
    26   11   49 1
    27   12   13 1
    28   12   14 1
    29   12   21 1
    30   14   20 1
    31   14   15 1
    32   14   16 1
    33   15   50 1
    34   15   51 1
    35   16   17 1
    36   16   52 1
    37   16   53 1
    38   17   18 1
    39   17   54 1
    40   17   55 1
    41   18   19 1
    42   18   56 1
    43   18   83 1
    44   19   20 1
    45   19   57 1
    46   19   58 1
    47   20   59 1
    48   20   60 1
    49   21   22 2
    50   21   23 am
    51   23   24 1
    52   23   61 1
    53   24   25 1
    54   24   62 1
    55   24   63 1
    56   25   30 1
    57   25   26 1
    58   25   64 1
    59   26   27 1
    60   26   65 1
    61   26   66 1
    62   27   28 1
    63   27   67 1
    64   27   68 1
    65   28   29 1
    66   28   31 1
    67   28   82 1
    68   29   30 1
    69   29   69 1
    70   29   70 1
    71   30   71 1
    72   30   72 1
    73   31   35 1
    74   31   32 1
    75   31   73 1
    76   32   33 1
    77   32   74 1
    78   32   75 1
    79   33   34 1
    80   33   76 1
    81   33   77 1
    82   34   35 1
    83   34   78 1
    84   34   79 1
    85   35   80 1
    86   35   81 1
@<TRIPOS>MOLECULE
ZINC62978579
   46    48     0     0     0
SMALL
USER_CHARGES

@<TRIPOS>ATOM
      1 C1         -0.8385    0.3453    2.5024 C.2       1 <0>        -0.1260
      2 C2         -0.6609   -0.3302    3.7323 C.2       1 <0>        -0.1511
      3 C3         -0.7273   -1.6487    3.4659 C.2       1 <0>         0.0361
      4 O1         -0.9344   -1.8048    2.1477 O.3       1 <0>        -0.1338
      5 C4         -1.0027   -0.5992    1.5589 C.2       1 <0>        -0.0409
      6 C5         -1.2254   -0.3475    0.0899 C.3       1 <0>         0.1445
      7 H1         -0.9928    0.6923   -0.1400 H         1 <0>         0.1108
      8 C6         -2.6872   -0.6326   -0.2605 C.3       1 <0>        -0.0025
      9 N1         -2.8867   -0.4614   -1.7058 N.4       1 <0>        -0.6420
     10 N2         -0.3525   -1.2298   -0.6960 N.3       1 <0>        -0.5014
     11 C7          1.0336   -1.2209   -0.1614 C.3       1 <0>         0.0318
     12 C8          1.9067   -1.7112   -1.3364 C.3       1 <0>        -0.1440
     13 C9          1.0889   -1.3909   -2.6045 C.3       1 <0>         0.0263
     14 H2          0.8595   -2.3071   -3.1486 H         1 <0>         0.1595
     15 C10        -0.2096   -0.7340   -2.0891 C.3       1 <0>        -0.0185
     16 N3          1.8278   -0.4583   -3.4661 N.4       1 <0>        -0.3820
     17 C11         1.0143   -0.1335   -4.6439 C.3       1 <0>        -0.0089
     18 C12         1.7450    0.8998   -5.5040 C.3       1 <0>        -0.1467
     19 C13         3.0898    0.3219   -5.9542 C.3       1 <0>        -0.1418
     20 C14         3.8998   -0.0821   -4.7189 C.3       1 <0>        -0.1468
     21 C15         3.0892   -1.0790   -3.8879 C.3       1 <0>        -0.0111
     22 Br1        -0.5572   -3.0430    4.7319 Br        1 <0>         0.1101
     23 Br2        -0.3829    0.4651    5.4252 Br        1 <0>         0.0422
     24 H3         -0.8457    1.4145    2.3507 H         1 <0>         0.1734
     25 H4         -2.9357   -1.6556    0.0219 H         1 <0>         0.1554
     26 H5         -3.3322    0.0604    0.2799 H         1 <0>         0.1560
     27 H6         -2.5237   -1.2669   -2.1931 H         1 <0>         0.4358
     28 H7         -3.8722   -0.3665   -1.9004 H         1 <0>         0.4484
     29 H8          1.3218   -0.2112    0.1309 H         1 <0>         0.0744
     30 H9          1.1188   -1.9018    0.6855 H         1 <0>         0.1166
     31 H10         2.8556   -1.1751   -1.3524 H         1 <0>         0.1037
     32 H11         2.0788   -2.7847   -1.2580 H         1 <0>         0.1227
     33 H12        -1.0604   -1.0482   -2.6936 H         1 <0>         0.1009
     34 H13        -0.1159    0.3519   -2.0984 H         1 <0>         0.0833
     35 H14         0.8448   -1.0377   -5.2285 H         1 <0>         0.1342
     36 H15         0.0562    0.2747   -4.3218 H         1 <0>         0.1190
     37 H16         1.1401    1.1383   -6.3788 H         1 <0>         0.1161
     38 H17         1.9147    1.8046   -4.9204 H         1 <0>         0.0883
     39 H18         2.9190   -0.5537   -6.5804 H         1 <0>         0.0851
     40 H19         3.6389    1.0746   -6.5199 H         1 <0>         0.0996
     41 H20         4.8352   -0.5455   -5.0326 H         1 <0>         0.1187
     42 H21         4.1143    0.8023   -4.1190 H         1 <0>         0.0888
     43 H22         3.6631   -1.3689   -3.0077 H         1 <0>         0.1341
     44 H23         2.8756   -1.9631   -4.4886 H         1 <0>         0.1344
     45 H24         2.0255    0.3875   -2.9527 H         1 <0>         0.4201
     46 H25        -2.4013    0.3668   -2.0166 H         1 <0>         0.4269
@<TRIPOS>BOND
     1    1    5 2
     2    1    2 1
     3    1   24 1
     4    2    3 2
     5    2   23 1
     6    3    4 1
     7    3   22 1
     8    4    5 1
     9    5    6 1
    10    6    7 1
    11    6    8 1
    12    6   10 1
    13    8    9 1
    14    8   25 1
    15    8   26 1
    16    9   27 1
    17    9   28 1
    18    9   46 1
    19   10   15 1
    20   10   11 1
    21   11   12 1
    22   11   29 1
    23   11   30 1
    24   12   13 1
    25   12   31 1
    26   12   32 1
    27   13   14 1
    28   13   15 1
    29   13   16 1
    30   15   33 1
    31   15   34 1
    32   16   21 1
    33   16   17 1
    34   16   45 1
    35   17   18 1
    36   17   35 1
    37   17   36 1
    38   18   19 1
    39   18   37 1
    40   18   38 1
    41   19   20 1
    42   19   39 1
    43   19   40 1
    44   20   21 1
    45   20   41 1
    46   20   42 1
    47   21   43 1
    48   21   44 1
@<TRIPOS>MOLECULE
ZINC63506871
   68    71     0     0     0
SMALL
USER_CHARGES

@<TRIPOS>ATOM
      1 C1         -0.0187    1.5258    0.0104 C.3       1 <0>        -0.1576
      2 C2          0.0021   -0.0041    0.0020 C.3       1 <0>         0.0962
      3 H1          0.5212   -0.3675   -0.8849 H         1 <0>         0.1806
      4 C3         -1.4100   -0.5448    0.0377 C.2       1 <0>         0.0651
      5 C4         -1.5033   -1.2749    1.1720 C.ar      1 <0>        -0.1394
      6 C5         -2.5975   -2.0454    1.7726 C.ar      1 <0>        -0.0810
      7 C6         -2.3935   -2.6905    2.9463 C.ar      1 <0>         0.1029
      8 C7         -1.1601   -2.6511    3.6198 C.ar      1 <0>        -0.0380
      9 C8         -0.0949   -1.9696    3.1467 C.ar      1 <0>        -0.1341
     10 C9         -0.2044   -1.2339    1.8829 C.ar      1 <0>         0.3298
     11 N1          0.6583   -0.5076    1.2140 N.pl3     1 <0>        -0.5596
     12 O1         -3.4164   -3.4006    3.4912 O.3       1 <0>        -0.3016
     13 C10        -3.1574   -4.0651    4.7295 C.3       1 <0>         0.6040
     14 F1         -2.7963   -3.1224    5.6980 F         1 <0>        -0.1568
     15 F2         -4.3087   -4.7429    5.1447 F         1 <0>        -0.1120
     16 F3         -2.1136   -4.9807    4.5580 F         1 <0>        -0.1576
     17 C11        -2.4939   -0.3154   -0.9837 C.3       1 <0>        -0.1116
     18 C12        -3.7655   -1.0482   -0.5513 C.3       1 <0>         0.1266
     19 N2         -4.8176   -0.8256   -1.5427 N.am      1 <0>        -0.6505
     20 C13        -5.7217    0.1740   -1.5461 C.2       1 <0>         0.6468
     21 O2         -5.7997    1.0188   -0.6786 O.2       1 <0>        -0.4790
     22 O3         -6.5276    0.1336   -2.6266 O.3       1 <0>        -0.3065
     23 C14        -5.8609   -0.6579   -3.6224 C.3       1 <0>         0.1147
     24 C15        -5.0920   -1.6631   -2.7341 C.3       1 <0>         0.3153
     25 C16        -5.9456   -2.8695   -2.3504 C.3       1 <0>        -0.1913
     26 O4         -3.8751   -2.0742   -3.3565 O.3       1 <0>        -0.5359
     27 C17        -4.8635    0.1738   -4.4133 C.3       1 <0>        -0.1353
     28 C18        -5.5578    1.1498   -5.3553 C.3       1 <0>         0.0591
     29 N3         -6.5960    0.5287   -6.1579 N.4       1 <0>        -0.4908
     30 C19        -7.5108   -0.3917   -5.5111 C.3       1 <0>         0.0568
     31 C20        -6.8366   -1.3594   -4.5410 C.3       1 <0>        -0.1204
     32 C21        -8.1709   -1.2476   -6.6201 C.3       1 <0>        -0.1820
     33 C22        -8.6431    0.3550   -4.7971 C.3       1 <0>        -0.1778
     34 C23        -4.4816    1.6911   -6.3284 C.3       1 <0>        -0.1803
     35 C24        -6.0947    2.3530   -4.5752 C.3       1 <0>        -0.1791
     36 H2          1.0039    1.9031    0.0027 H         1 <0>         0.1005
     37 H3         -0.5459    1.8868   -0.8726 H         1 <0>         0.1072
     38 H4         -0.5289    1.8773    0.9072 H         1 <0>         0.0859
     39 H5         -3.5587   -2.0978    1.2830 H         1 <0>         0.1756
     40 H6         -1.0609   -3.1868    4.5523 H         1 <0>         0.1719
     41 H7          0.8344   -1.9663    3.6970 H         1 <0>         0.1809
     42 H8         -2.6989    0.7523   -1.0626 H         1 <0>         0.1282
     43 H9         -2.1671   -0.6951   -1.9518 H         1 <0>         0.1296
     44 H10        -3.5606   -2.1158   -0.4725 H         1 <0>         0.1025
     45 H11        -4.0923   -0.6685    0.4167 H         1 <0>         0.1104
     46 H12        -6.8809   -2.5267   -1.9078 H         1 <0>         0.0861
     47 H13        -6.1601   -3.4607   -3.2406 H         1 <0>         0.0951
     48 H14        -5.4052   -3.4821   -1.6288 H         1 <0>         0.0838
     49 H15        -3.3070   -2.6146   -2.7906 H         1 <0>         0.3964
     50 H16        -4.2287    0.7306   -3.7170 H         1 <0>         0.1107
     51 H17        -4.2232   -0.4925   -5.0010 H         1 <0>         0.1252
     52 H18        -7.1469    1.2728   -6.5989 H         1 <0>         0.4318
     53 H19        -6.3153   -2.1323   -5.1143 H         1 <0>         0.1232
     54 H20        -7.6291   -1.8402   -3.9540 H         1 <0>         0.1283
     55 H21        -7.4006   -1.7949   -7.1636 H         1 <0>         0.0841
     56 H22        -8.8676   -1.9535   -6.1680 H         1 <0>         0.1099
     57 H23        -8.7090   -0.5969   -7.3094 H         1 <0>         0.0892
     58 H24        -9.2023    0.9462   -5.5222 H         1 <0>         0.0856
     59 H25        -9.3105   -0.3647   -4.3230 H         1 <0>         0.1056
     60 H26        -8.2217    1.0144   -4.0383 H         1 <0>         0.0894
     61 H27        -4.0471    0.8622   -6.8872 H         1 <0>         0.0842
     62 H28        -4.9403    2.3959   -7.0219 H         1 <0>         0.0885
     63 H29        -3.6998    2.1961   -5.7611 H         1 <0>         0.1049
     64 H30        -5.2682    2.8635   -4.0808 H         1 <0>         0.1001
     65 H31        -6.5878    3.0408   -5.2622 H         1 <0>         0.0856
     66 H32        -6.8102    2.0112   -3.8273 H         1 <0>         0.0932
     67 H33         1.5757   -0.3321    1.4756 H         1 <0>         0.4607
     68 H34        -6.1477    0.0416   -6.9406 H         1 <0>         0.4260
@<TRIPOS>BOND
     1    1    2 1
     2    1   36 1
     3    1   37 1
     4    1   38 1
     5    2    3 1
     6    2   11 1
     7    2    4 1
     8    4    5 2
     9    4   17 1
    10    5   10 ar
    11    5    6 ar
    12    6    7 ar
    13    6   39 1
    14    7    8 ar
    15    7   12 1
    16    8    9 ar
    17    8   40 1
    18    9   10 ar
    19    9   41 1
    20   10   11 2
    21   11   67 1
    22   12   13 1
    23   13   14 1
    24   13   15 1
    25   13   16 1
    26   17   18 1
    27   17   42 1
    28   17   43 1
    29   18   19 1
    30   18   44 1
    31   18   45 1
    32   19   24 1
    33   19   20 am
    34   20   21 2
    35   20   22 1
    36   22   23 1
    37   23   31 1
    38   23   24 1
    39   23   27 1
    40   24   25 1
    41   24   26 1
    42   25   46 1
    43   25   47 1
    44   25   48 1
    45   26   49 1
    46   27   28 1
    47   27   50 1
    48   27   51 1
    49   28   29 1
    50   28   34 1
    51   28   35 1
    52   29   30 1
    53   29   52 1
    54   29   68 1
    55   30   31 1
    56   30   32 1
    57   30   33 1
    58   31   53 1
    59   31   54 1
    60   32   55 1
    61   32   56 1
    62   32   57 1
    63   33   58 1
    64   33   59 1
    65   33   60 1
    66   34   61 1
    67   34   62 1
    68   34   63 1
    69   35   64 1
    70   35   65 1
    71   35   66 1
@<TRIPOS>MOLECULE
ZINC64428646
   47    50     0     0     0
SMALL
USER_CHARGES

@<TRIPOS>ATOM
      1 C1         -0.0163    1.3482    0.0095 C.ar      1 <0>        -0.0989
      2 C2          1.1658    2.1014    0.0022 C.ar      1 <0>         0.0494
      3 C3          2.3912    1.5352   -0.0125 C.ar      1 <0>        -0.1928
      4 C4          2.5288    0.1198   -0.0218 C.ar      1 <0>         0.3315
      5 N1          3.5868   -0.6543   -0.0369 N.pl3     1 <0>        -0.5610
      6 C5          3.1432   -2.0528   -0.0408 C.3       1 <0>         0.0608
      7 C6          1.6315   -2.0084   -0.0255 C.2       1 <0>        -0.0059
      8 C7          1.2951   -0.6984   -0.0144 C.ar      1 <0>        -0.1424
      9 C8          0.0021   -0.0041    0.0020 C.ar      1 <0>        -0.0806
     10 C9          0.6905   -3.1856   -0.0239 C.3       1 <0>        -0.1032
     11 C10         0.4565   -3.6534   -1.4617 C.3       1 <0>         0.0551
     12 H1          1.4151   -3.8639   -1.9359 H         1 <0>         0.1772
     13 C11        -0.3976   -4.9228   -1.4524 C.3       1 <0>         0.0958
     14 H2          0.1022   -5.7099   -0.8878 H         1 <0>         0.1729
     15 N2         -1.7193   -4.6433   -0.8763 N.2       1 <0>        -0.1781
     16 N3         -2.6033   -5.1681   -1.5658 N.2       1 <0>        -0.0713
     17 C12        -2.0022   -5.8755   -2.7039 C.3       1 <0>         0.1222
     18 H3         -1.9831   -6.9488   -2.5146 H         1 <0>         0.1834
     19 O1         -0.6560   -5.3620   -2.8021 O.3       1 <0>        -0.3599
     20 S1         -2.9268   -5.5219   -4.2240 S.3       1 <0>        -0.0522
     21 C13        -2.8364   -3.7171   -4.3828 C.3       1 <0>        -0.0764
     22 C14        -3.5754   -3.2844   -5.6229 C.ar      1 <0>        -0.0948
     23 C15        -2.9079   -3.1980   -6.8304 C.ar      1 <0>        -0.0733
     24 C16        -3.5849   -2.8013   -7.9680 C.ar      1 <0>        -0.1023
     25 C17        -4.9316   -2.4906   -7.8990 C.ar      1 <0>        -0.0048
     26 C18        -5.6001   -2.5773   -6.6913 C.ar      1 <0>        -0.0985
     27 C19        -4.9229   -2.9792   -5.5538 C.ar      1 <0>        -0.0057
     28 Cl1        -5.7625   -3.0941   -4.0387 Cl        1 <0>        -0.0365
     29 Cl2        -5.7817   -1.9917   -9.3281 Cl        1 <0>        -0.0284
     30 N4         -0.2401   -2.6000   -2.2122 N.4       1 <0>        -0.6485
     31 H4         -0.9665    1.8612    0.0259 H         1 <0>         0.1683
     32 H5          1.0933    3.1789    0.0083 H         1 <0>         0.1719
     33 H6          3.2717    2.1606   -0.0175 H         1 <0>         0.1710
     34 H7          3.4952   -2.5561   -0.9413 H         1 <0>         0.1786
     35 H8          3.5129   -2.5667    0.8465 H         1 <0>         0.1872
     36 H9         -0.9210   -0.5647    0.0081 H         1 <0>         0.1610
     37 H10         1.1268   -3.9987    0.5563 H         1 <0>         0.1654
     38 H11        -0.2596   -2.8905    0.4214 H         1 <0>         0.1452
     39 H12        -3.2911   -3.2522   -3.5081 H         1 <0>         0.1030
     40 H13        -1.7930   -3.4106   -4.4561 H         1 <0>         0.0803
     41 H14        -1.8568   -3.4404   -6.8846 H         1 <0>         0.1443
     42 H15        -3.0627   -2.7333   -8.9109 H         1 <0>         0.1510
     43 H16        -6.6512   -2.3349   -6.6371 H         1 <0>         0.1558
     44 H17        -1.1275   -2.4051   -1.7732 H         1 <0>         0.4386
     45 H18         0.3232   -1.7629   -2.2183 H         1 <0>         0.4362
     46 H19         4.5087   -0.3528   -0.0446 H         1 <0>         0.4651
     47 H20        -0.3944   -2.9085   -3.1604 H         1 <0>         0.4446
@<TRIPOS>BOND
     1    1    9 ar
     2    1    2 ar
     3    1   31 1
     4    2    3 ar
     5    2   32 1
     6    3    4 ar
     7    3   33 1
     8    4    8 ar
     9    4    5 2
    10    5    6 1
    11    5   46 1
    12    6    7 1
    13    6   34 1
    14    6   35 1
    15    7    8 2
    16    7   10 1
    17    8    9 ar
    18    9   36 1
    19   10   11 1
    20   10   37 1
    21   10   38 1
    22   11   12 1
    23   11   13 1
    24   11   30 1
    25   13   14 1
    26   13   19 1
    27   13   15 1
    28   15   16 2
    29   16   17 1
    30   17   18 1
    31   17   19 1
    32   17   20 1
    33   20   21 1
    34   21   22 1
    35   21   39 1
    36   21   40 1
    37   22   27 ar
    38   22   23 ar
    39   23   24 ar
    40   23   41 1
    41   24   25 ar
    42   24   42 1
    43   25   26 ar
    44   25   29 1
    45   26   27 ar
    46   26   43 1
    47   27   28 1
    48   30   44 1
    49   30   45 1
    50   30   47 1
@<TRIPOS>MOLECULE
ZINC11094166
   56    58     0     0     0
SMALL
USER_CHARGES
N-(5-chloro-2-methyl-phenyl)-2-[1-(2,5-dioxabicyclo[4.4.0]deca-7,9,11-trien-8-yl)-2-methyl-propyl]amino-propanamide
@<TRIPOS>ATOM
      1 C1         -5.6938   -2.5197    6.4470 C.3       1 <0>        -0.1219
      2 C2         -6.7097   -1.4850    6.0366 C.ar      1 <0>        -0.0968
      3 C3         -7.8616   -1.3145    6.7797 C.ar      1 <0>        -0.0842
      4 C4         -8.7941   -0.3654    6.4046 C.ar      1 <0>        -0.1069
      5 C5         -8.5769    0.4169    5.2835 C.ar      1 <0>        -0.0221
      6 C6         -7.4236    0.2547    4.5394 C.ar      1 <0>        -0.1148
      7 C7         -6.4883   -0.7021    4.9113 C.ar      1 <0>         0.1341
      8 N1         -5.3223   -0.8730    4.1568 N.am      1 <0>        -0.6368
      9 C8         -5.3029   -0.5183    2.8567 C.2       1 <0>         0.5028
     10 O1         -6.3223   -0.1481    2.3138 O.2       1 <0>        -0.5048
     11 C9         -4.0145   -0.5816    2.0776 C.3       1 <0>         0.0119
     12 H1         -3.6403   -1.6054    2.0768 H         1 <0>         0.1685
     13 C10        -2.9797    0.3392    2.7274 C.3       1 <0>        -0.1824
     14 C11        -3.3343   -0.8134   -0.2346 C.3       1 <0>         0.0906
     15 H2         -3.0730   -1.7973    0.1549 H         1 <0>         0.1475
     16 C12        -2.0849    0.0161   -0.3830 C.ar      1 <0>        -0.1366
     17 C13        -2.1757    1.3938   -0.4555 C.ar      1 <0>        -0.1209
     18 C14        -1.0327    2.1575   -0.5967 C.ar      1 <0>        -0.0965
     19 C15         0.2098    1.5441   -0.6583 C.ar      1 <0>         0.0799
     20 C16         0.3013    0.1594   -0.5829 C.ar      1 <0>         0.0666
     21 C17        -0.8502   -0.6015   -0.4460 C.ar      1 <0>        -0.0836
     22 O2          1.5103   -0.4630   -0.6407 O.3       1 <0>        -0.3005
     23 C18         2.6049    0.3042   -1.1538 C.3       1 <0>         0.0181
     24 C19         2.5772    1.6860   -0.4864 C.3       1 <0>         0.0176
     25 O3          1.3266    2.3094   -0.7981 O.3       1 <0>        -0.2986
     26 C20        -4.0090   -0.9677   -1.5991 C.3       1 <0>        -0.1086
     27 C21        -3.0936   -1.7609   -2.5339 C.3       1 <0>        -0.1500
     28 C22        -5.3350   -1.7123   -1.4310 C.3       1 <0>        -0.1754
     29 Cl1        -9.7508    1.6072    4.8157 Cl        1 <0>        -0.0516
     30 H3         -4.9708   -2.0692    7.1270 H         1 <0>         0.0806
     31 H4         -6.1985   -3.3456    6.9483 H         1 <0>         0.0830
     32 H5         -5.1774   -2.8927    5.5626 H         1 <0>         0.0623
     33 H6         -8.0337   -1.9231    7.6551 H         1 <0>         0.1444
     34 H7         -9.6937   -0.2338    6.9876 H         1 <0>         0.1425
     35 H8         -7.2520    0.8681    3.6673 H         1 <0>         0.1539
     36 H9         -4.5280   -1.2467    4.5695 H         1 <0>         0.4217
     37 H10        -3.3539    1.3629    2.7282 H         1 <0>         0.0919
     38 H11        -2.8002    0.0172    3.7532 H         1 <0>         0.1103
     39 H12        -2.0478    0.2933    2.1639 H         1 <0>         0.1033
     40 H13        -3.1419    1.8737   -0.4047 H         1 <0>         0.1294
     41 H14        -1.1065    3.2335   -0.6533 H         1 <0>         0.1486
     42 H15        -0.7820   -1.6779   -0.3889 H         1 <0>         0.1460
     43 H16         3.5451   -0.1967   -0.9232 H         1 <0>         0.1339
     44 H17         2.5023    0.4146   -2.2334 H         1 <0>         0.0864
     45 H18         2.6734    1.5745    0.5936 H         1 <0>         0.0861
     46 H19         3.3967    2.2950   -0.8681 H         1 <0>         0.1338
     47 H20        -4.1972    0.0178   -2.0250 H         1 <0>         0.1001
     48 H21        -2.9054   -2.7465   -2.1080 H         1 <0>         0.0674
     49 H22        -3.5743   -1.8709   -3.5059 H         1 <0>         0.0791
     50 H23        -2.1490   -1.2305   -2.6536 H         1 <0>         0.0706
     51 H24        -6.0207   -1.1045   -0.8407 H         1 <0>         0.0563
     52 H25        -5.7711   -1.9037   -2.4115 H         1 <0>         0.0926
     53 H26        -5.1578   -2.6593   -0.9211 H         1 <0>         0.0731
     54 N2         -4.2639   -0.1406    0.6922 N.4       1 <0>        -0.5109
     55 H27        -4.1277    0.8752    0.6304 H         1 <0>         0.4314
     56 H28        -5.2294   -0.3730    0.4314 H         1 <0>         0.4377
@<TRIPOS>BOND
     1    1    2 1
     2    1   30 1
     3    1   31 1
     4    1   32 1
     5    2    7 ar
     6    2    3 ar
     7    3    4 ar
     8    3   33 1
     9    4    5 ar
    10    4   34 1
    11    5    6 ar
    12    5   29 1
    13    6    7 ar
    14    6   35 1
    15    7    8 1
    16    8    9 am
    17    8   36 1
    18    9   10 2
    19    9   11 1
    20   11   12 1
    21   11   13 1
    22   11   54 1
    23   13   37 1
    24   13   38 1
    25   13   39 1
    26   14   15 1
    27   14   16 1
    28   14   26 1
    29   14   54 1
    30   16   21 ar
    31   16   17 ar
    32   17   18 ar
    33   17   40 1
    34   18   19 ar
    35   18   41 1
    36   19   25 1
    37   19   20 ar
    38   20   21 ar
    39   20   22 1
    40   21   42 1
    41   22   23 1
    42   23   24 1
    43   23   43 1
    44   23   44 1
    45   24   25 1
    46   24   45 1
    47   24   46 1
    48   26   27 1
    49   26   28 1
    50   26   47 1
    51   27   48 1
    52   27   49 1
    53   27   50 1
    54   28   51 1
    55   28   52 1
    56   28   53 1
    57   54   55 1
    58   54   56 1
@<TRIPOS>MOLECULE
ZINC28804078
   62    66     0     0     0
SMALL
USER_CHARGES
(2R)-1-(3,4-dihydro-1H-isoquinolin-2-yl)-2-[[(2S)-2-(1H-indol-3-yl)-2-phenyl-ethyl]amino]propan-1-one
@<TRIPOS>ATOM
      1 C1         -2.3381    8.2368    3.3126 C.3       1 <0>        -0.1802
      2 C2         -1.3653    9.1502    2.5641 C.3       1 <0>         0.0141
      3 H1         -0.4881    9.3845    3.1851 H         1 <0>         0.1550
      4 C3         -2.0700   10.4249    2.1772 C.2       1 <0>         0.5071
      5 O1         -2.4724   10.5751    1.0430 O.2       1 <0>        -0.5227
      6 N1         -2.2530   11.3980    3.0915 N.am      1 <0>        -0.5869
      7 C4         -1.6960   11.2869    4.4499 C.3       1 <0>         0.0936
      8 C5         -0.6620   12.4054    4.6206 C.3       1 <0>        -0.0970
      9 C6         -1.2182   13.7244    4.1526 C.ar      1 <0>        -0.0817
     10 C7         -0.6007   14.8824    4.6101 C.ar      1 <0>        -0.1163
     11 C8         -1.0518   16.1229    4.2105 C.ar      1 <0>        -0.1099
     12 C9         -2.1278   16.2181    3.3475 C.ar      1 <0>        -0.1110
     13 C10        -2.7455   15.0704    2.8952 C.ar      1 <0>        -0.1097
     14 C11        -2.2942   13.8211    3.2993 C.ar      1 <0>        -0.1031
     15 C12        -3.0202   12.6075    2.7753 C.3       1 <0>         0.1508
     16 N2         -0.8863    8.4688    1.3541 N.4       1 <0>        -0.5294
     17 C13         0.2600    7.6016    1.6571 C.3       1 <0>         0.0024
     18 C14         0.7298    6.9107    0.3754 C.3       1 <0>         0.0229
     19 H2         -0.1055    6.3717   -0.0955 H         1 <0>         0.1076
     20 C15         1.2549    7.9433   -0.5884 C.ar      1 <0>        -0.1194
     21 C16         2.3198    8.7474   -0.2274 C.ar      1 <0>        -0.1191
     22 C17         2.8043    9.6917   -1.1132 C.ar      1 <0>        -0.1115
     23 C18         2.2180    9.8380   -2.3565 C.ar      1 <0>        -0.1050
     24 C19         1.1498    9.0375   -2.7155 C.ar      1 <0>        -0.1079
     25 C20         0.6681    8.0903   -1.8314 C.ar      1 <0>        -0.1109
     26 C21         1.8247    5.9294    0.7060 C.2       1 <0>        -0.1903
     27 C22         3.0068    6.2138    1.2749 C.2       1 <0>         0.0690
     28 N3          3.7424    5.0691    1.4196 N.pl3     1 <0>        -0.5992
     29 H3          4.7447    5.1127    1.8708 H         1 <0>         0.4495
     30 C23         3.0336    3.9927    0.9349 C.ar      1 <0>         0.1082
     31 C24         1.8012    4.4844    0.4666 C.ar      1 <0>        -0.0971
     32 C25         0.8663    3.6075   -0.0862 C.ar      1 <0>        -0.0809
     33 C26         1.1557    2.2748   -0.1750 C.ar      1 <0>        -0.1347
     34 C27         2.3675    1.7841    0.2907 C.ar      1 <0>        -0.0935
     35 C28         3.3047    2.6319    0.8399 C.ar      1 <0>        -0.1249
     36 H4         -1.8238    7.3064    3.5950 H         1 <0>         0.0988
     37 H5         -3.1931    8.0003    2.6622 H         1 <0>         0.0942
     38 H6         -2.6967    8.7471    4.2187 H         1 <0>         0.1100
     39 H7         -2.5044   11.3966    5.1878 H         1 <0>         0.0970
     40 H8         -1.2196   10.3029    4.5715 H         1 <0>         0.0917
     41 H9         -0.3884   12.4929    5.6824 H         1 <0>         0.0985
     42 H10         0.2349   12.1691    4.0292 H         1 <0>         0.0811
     43 H11         0.2400   14.8102    5.2842 H         1 <0>         0.1251
     44 H12        -0.5660   17.0176    4.5710 H         1 <0>         0.1284
     45 H13        -2.4831   17.1868    3.0286 H         1 <0>         0.1297
     46 H14        -3.5864   15.1443    2.2216 H         1 <0>         0.1272
     47 H15        -3.1354   12.6940    1.6848 H         1 <0>         0.1106
     48 H16        -4.0129   12.5453    3.2450 H         1 <0>         0.0939
     49 H17        -1.6952    7.8512    0.9366 H         1 <0>         0.4539
     50 H18         1.0802    8.2084    2.0683 H         1 <0>         0.1275
     51 H19        -0.0395    6.8422    2.3944 H         1 <0>         0.1390
     52 H20         2.7754    8.6356    0.7454 H         1 <0>         0.1208
     53 H21         3.6391   10.3169   -0.8328 H         1 <0>         0.1278
     54 H22         2.5948   10.5776   -3.0475 H         1 <0>         0.1290
     55 H23         0.6917    9.1518   -3.6868 H         1 <0>         0.1303
     56 H24        -0.1665    7.4649   -2.1119 H         1 <0>         0.1275
     57 H25         3.3296    7.2001    1.5739 H         1 <0>         0.1658
     58 H26        -0.0806    3.9816   -0.4466 H         1 <0>         0.1190
     59 H27         0.4340    1.5975   -0.6071 H         1 <0>         0.1264
     60 H28         2.5799    0.7277    0.2179 H         1 <0>         0.1301
     61 H29         4.2467    2.2410    1.1951 H         1 <0>         0.1240
     62 H30        -0.5754    9.2174    0.6105 H         1 <0>         0.4548
@<TRIPOS>BOND
     1    1    2 1
     2    1   36 1
     3    1   37 1
     4    1   38 1
     5    2    3 1
     6    2    4 1
     7    2   16 1
     8    4    5 2
     9    4    6 am
    10    6   15 1
    11    6    7 1
    12    7    8 1
    13    7   39 1
    14    7   40 1
    15    8    9 1
    16    8   41 1
    17    8   42 1
    18    9   14 ar
    19    9   10 ar
    20   10   11 ar
    21   10   43 1
    22   11   12 ar
    23   11   44 1
    24   12   13 ar
    25   12   45 1
    26   13   14 ar
    27   13   46 1
    28   14   15 1
    29   15   47 1
    30   15   48 1
    31   16   17 1
    32   16   49 1
    33   16   62 1
    34   17   18 1
    35   17   50 1
    36   17   51 1
    37   18   19 1
    38   18   20 1
    39   18   26 1
    40   20   25 ar
    41   20   21 ar
    42   21   22 ar
    43   21   52 1
    44   22   23 ar
    45   22   53 1
    46   23   24 ar
    47   23   54 1
    48   24   25 ar
    49   24   55 1
    50   25   56 1
    51   26   31 1
    52   26   27 2
    53   27   28 1
    54   27   57 1
    55   28   29 1
    56   28   30 1
    57   30   35 ar
    58   30   31 ar
    59   31   32 ar
    60   32   33 ar
    61   32   58 1
    62   33   34 ar
    63   33   59 1
    64   34   35 ar
    65   34   60 1
    66   35   61 1
@<TRIPOS>MOLECULE
ZINC38676189
   51    54     0     0     0
SMALL
USER_CHARGES

@<TRIPOS>ATOM
      1 C1          1.3621   -3.0683   -1.3882 C.3       1 <0>        -0.1580
      2 C2          1.6275   -1.6997   -0.7579 C.3       1 <0>         0.0959
      3 H1          2.6334   -1.3613   -1.0061 H         1 <0>         0.1669
      4 C3          0.6055   -0.6956   -1.2435 C.2       1 <0>         0.1258
      5 C4         -0.0635   -0.2619   -0.1060 C.ar      1 <0>        -0.1741
      6 C5         -1.1141    0.6645    0.0900 C.ar      1 <0>        -0.0137
      7 C6         -1.5802    0.8970    1.3416 C.ar      1 <0>        -0.1521
      8 C7         -1.0478    0.2415    2.4566 C.ar      1 <0>         0.0440
      9 C8         -0.0415   -0.6575    2.3451 C.ar      1 <0>        -0.2049
     10 C9          0.5010   -0.9554    1.0661 C.ar      1 <0>         0.3165
     11 N1          1.4645   -1.7739    0.6973 N.pl3     1 <0>        -0.5991
     12 C10         0.3793   -0.2855   -2.5733 C.2       1 <0>        -0.1535
     13 C11         1.1843   -0.7186   -3.5549 C.2       1 <0>        -0.0383
     14 C12         0.8704   -0.3830   -4.9901 C.3       1 <0>         0.4015
     15 H2         -0.0413    0.2131   -5.0302 H         1 <0>         0.1279
     16 N2          0.6728   -1.6248   -5.7476 N.pl3     1 <0>        -0.7409
     17 C13         1.7910   -2.3709   -6.1031 C.ar      1 <0>         0.2333
     18 C14         1.7383   -3.7463   -6.2490 C.ar      1 <0>        -0.1710
     19 C15         2.8799   -4.4408   -6.6005 C.ar      1 <0>        -0.0164
     20 C16         4.0765   -3.7716   -6.8071 C.ar      1 <0>        -0.1463
     21 C17         4.1457   -2.4004   -6.6668 C.ar      1 <0>         0.0143
     22 C18         3.0020   -1.6881   -6.3151 C.ar      1 <0>        -0.1962
     23 C19         3.0175   -0.2222   -6.1603 C.2       1 <0>         0.5720
     24 O1          3.9592    0.4293   -6.5695 O.2       1 <0>        -0.5038
     25 N3          1.9767    0.3850   -5.5611 N.am      1 <0>        -0.6213
     26 C20         1.9544    1.8476   -5.4791 C.3       1 <0>         0.1136
     27 C21         2.6404    2.2965   -4.1873 C.3       1 <0>        -0.1355
     28 C22         2.6171    3.8239   -4.1017 C.3       1 <0>         0.0770
     29 O2          3.2578    4.2432   -2.8952 O.3       1 <0>        -0.5769
     30 I1          5.7930   -4.8503   -7.3357 I         1 <0>        -0.0211
     31 H3          0.3588   -3.4019   -1.1233 H         1 <0>         0.0853
     32 H4          1.4449   -2.9912   -2.4723 H         1 <0>         0.0991
     33 H5          2.0935   -3.7867   -1.0181 H         1 <0>         0.0975
     34 H6         -1.5434    1.1841   -0.7539 H         1 <0>         0.1548
     35 H7         -2.3825    1.6065    1.4813 H         1 <0>         0.1548
     36 H8         -1.4508    0.4589    3.4347 H         1 <0>         0.1596
     37 H9          0.3477   -1.1468    3.2258 H         1 <0>         0.1587
     38 H10        -0.4422    0.3774   -2.8016 H         1 <0>         0.1637
     39 H11         2.0575   -1.3078   -3.3167 H         1 <0>         0.1361
     40 H12        -0.2181   -1.9186   -5.9944 H         1 <0>         0.4246
     41 H13         0.8097   -4.2739   -6.0885 H         1 <0>         0.1425
     42 H14         2.8399   -5.5140   -6.7149 H         1 <0>         0.1407
     43 H15         5.0800   -1.8834   -6.8290 H         1 <0>         0.1458
     44 H16         2.4819    2.2675   -6.3355 H         1 <0>         0.0996
     45 H17         0.9216    2.1959   -5.4820 H         1 <0>         0.0877
     46 H18         2.1129    1.8765   -3.3309 H         1 <0>         0.0639
     47 H19         3.6732    1.9481   -4.1844 H         1 <0>         0.0784
     48 H20         3.1446    4.2439   -4.9581 H         1 <0>         0.0536
     49 H21         1.5843    4.1723   -4.1046 H         1 <0>         0.0486
     50 H22         3.2799    5.2024   -2.7744 H         1 <0>         0.3876
     51 H23         1.9837   -2.3367    1.2928 H         1 <0>         0.4516
@<TRIPOS>BOND
     1    1    2 1
     2    1   31 1
     3    1   32 1
     4    1   33 1
     5    2    3 1
     6    2   11 1
     7    2    4 1
     8    4    5 2
     9    4   12 1
    10    5   10 ar
    11    5    6 ar
    12    6    7 ar
    13    6   34 1
    14    7    8 ar
    15    7   35 1
    16    8    9 ar
    17    8   36 1
    18    9   10 ar
    19    9   37 1
    20   10   11 2
    21   11   51 1
    22   12   13 2
    23   12   38 1
    24   13   14 1
    25   13   39 1
    26   14   15 1
    27   14   25 1
    28   14   16 1
    29   16   17 1
    30   16   40 1
    31   17   22 ar
    32   17   18 ar
    33   18   19 ar
    34   18   41 1
    35   19   20 ar
    36   19   42 1
    37   20   21 ar
    38   20   30 1
    39   21   22 ar
    40   21   43 1
    41   22   23 1
    42   23   24 2
    43   23   25 am
    44   25   26 1
    45   26   27 1
    46   26   44 1
    47   26   45 1
    48   27   28 1
    49   27   46 1
    50   27   47 1
    51   28   29 1
    52   28   48 1
    53   28   49 1
    54   29   50 1
@<TRIPOS>MOLECULE
ZINC44169475
   55    58     0     0     0
SMALL
USER_CHARGES

@<TRIPOS>ATOM
      1 C1         -0.0376    1.5239    5.1558 C.2       1 <0>        -0.1643
      2 C2          1.3079    1.8079    5.2961 C.2       1 <0>        -0.1381
      3 C3          1.8291    2.8670    4.6298 C.2       1 <0>        -0.1673
      4 S1          0.3994    3.5019    3.7694 S.3       1 <0>         0.0466
      5 C4         -0.7961    2.3128    4.3560 C.2       1 <0>        -0.1562
      6 C5          3.2472    3.3767    4.6186 C.3       1 <0>        -0.0415
      7 C6          4.0251    2.6954    3.4908 C.3       1 <0>         0.1174
      8 N1          5.4037    3.1909    3.4799 N.am      1 <0>        -0.7322
      9 C7          6.2789    2.7280    2.5654 C.2       1 <0>         0.5026
     10 O1          5.9251    1.9013    1.7516 O.2       1 <0>        -0.4521
     11 C8          7.6971    3.2376    2.5542 C.3       1 <0>         0.0058
     12 H1          7.7474    4.1556    1.9687 H         1 <0>         0.1824
     13 C9          8.6131    2.1812    1.9251 C.3       1 <0>        -0.1148
     14 S2          8.4558    0.6441    2.8871 S.3       1 <0>        -0.1699
     15 C10         8.6817    1.2204    4.5988 C.3       1 <0>        -0.1181
     16 C11         7.7554    2.4206    4.8279 C.3       1 <0>         0.0681
     17 H2          6.7245    2.1247    4.6337 H         1 <0>         0.1600
     18 N2          8.1263    3.5121    3.9270 N.4       1 <0>        -0.5054
     19 C12         7.8824    2.8857    6.2557 C.ar      1 <0>        -0.2210
     20 C13         8.9473    3.6853    6.6286 C.ar      1 <0>        -0.0624
     21 C14         9.0667    4.1133    7.9362 C.ar      1 <0>        -0.1867
     22 C15         8.1156    3.7398    8.8772 C.ar      1 <0>         0.2723
     23 C16         7.0472    2.9366    8.4992 C.ar      1 <0>        -0.1890
     24 C17         6.9308    2.5167    7.1887 C.ar      1 <0>        -0.0265
     25 N3          8.2336    4.1706   10.2006 N.pl3     1 <0>        -0.6212
     26 C18         9.3062    5.0246   10.7314 C.3       1 <0>         0.1052
     27 C19         9.0368    5.2147   12.2390 C.3       1 <0>        -0.1346
     28 C20         8.1434    3.9954   12.5888 C.3       1 <0>        -0.1355
     29 C21         7.2997    3.8494   11.2952 C.3       1 <0>         0.1031
     30 H3         -0.4770    0.6832    5.6722 H         1 <0>         0.1381
     31 H4          1.9344    1.1954    5.9275 H         1 <0>         0.1326
     32 H5         -1.8500    2.2406    4.1316 H         1 <0>         0.1898
     33 H6          3.2446    4.4548    4.4584 H         1 <0>         0.0881
     34 H7          3.7215    3.1525    5.5740 H         1 <0>         0.0926
     35 H8          4.0277    1.6173    3.6510 H         1 <0>         0.0880
     36 H9          3.5508    2.9197    2.5353 H         1 <0>         0.0863
     37 H10         5.6866    3.8521    4.1308 H         1 <0>         0.3956
     38 H11         8.3121    2.0013    0.8931 H         1 <0>         0.1640
     39 H12         9.6463    2.5276    1.9522 H         1 <0>         0.1240
     40 H13         8.4250    0.4202    5.2929 H         1 <0>         0.1540
     41 H14         9.7181    1.5217    4.7513 H         1 <0>         0.1125
     42 H15         9.1284    3.6289    3.9430 H         1 <0>         0.4321
     43 H16         9.6866    3.9750    5.8965 H         1 <0>         0.1171
     44 H17         9.8988    4.7375    8.2268 H         1 <0>         0.1315
     45 H18         6.3062    2.6441    9.2284 H         1 <0>         0.1333
     46 H19         6.0980    1.8958    6.8931 H         1 <0>         0.1316
     47 H20        10.2719    4.5407   10.5854 H         1 <0>         0.0688
     48 H21         9.2938    5.9913   10.2278 H         1 <0>         0.0686
     49 H22         9.9685    5.1849   12.8039 H         1 <0>         0.0886
     50 H23         8.5040    6.1481   12.4209 H         1 <0>         0.0811
     51 H24         8.7481    3.1063   12.7673 H         1 <0>         0.0799
     52 H25         7.5062    4.2112   13.4464 H         1 <0>         0.0910
     53 H26         6.4665    4.5522   11.3015 H         1 <0>         0.0723
     54 H27         6.9343    2.8274   11.1945 H         1 <0>         0.0773
     55 H28         7.6899    4.3641    4.2458 H         1 <0>         0.4343
@<TRIPOS>BOND
     1    1    5 2
     2    1    2 1
     3    1   30 1
     4    2    3 2
     5    2   31 1
     6    3    4 1
     7    3    6 1
     8    4    5 1
     9    5   32 1
    10    6    7 1
    11    6   33 1
    12    6   34 1
    13    7    8 1
    14    7   35 1
    15    7   36 1
    16    8    9 am
    17    8   37 1
    18    9   10 2
    19    9   11 1
    20   11   12 1
    21   11   18 1
    22   11   13 1
    23   13   14 1
    24   13   38 1
    25   13   39 1
    26   14   15 1
    27   15   16 1
    28   15   40 1
    29   15   41 1
    30   16   17 1
    31   16   18 1
    32   16   19 1
    33   18   42 1
    34   18   55 1
    35   19   24 ar
    36   19   20 ar
    37   20   21 ar
    38   20   43 1
    39   21   22 ar
    40   21   44 1
    41   22   23 ar
    42   22   25 1
    43   23   24 ar
    44   23   45 1
    45   24   46 1
    46   25   29 1
    47   25   26 1
    48   26   27 1
    49   26   47 1
    50   26   48 1
    51   27   28 1
    52   27   49 1
    53   27   50 1
    54   28   29 1
    55   28   51 1
    56   28   52 1
    57   29   53 1
    58   29   54 1
@<TRIPOS>MOLECULE
ZINC65256000
   53    56     0     0     0
SMALL
USER_CHARGES

@<TRIPOS>ATOM
      1 C1          0.4212    1.7058   -0.6372 C.ar      1 <0>        -0.0869
      2 C2          1.6795    2.2754   -0.6945 C.ar      1 <0>        -0.1045
      3 C3          2.8040    1.4809   -0.5721 C.ar      1 <0>        -0.0829
      4 C4          2.6704    0.1169   -0.3919 C.ar      1 <0>        -0.1492
      5 C5          1.4121   -0.4526   -0.3337 C.ar      1 <0>        -0.1190
      6 C6          0.2876    0.3417   -0.4575 C.ar      1 <0>        -0.1042
      7 C7          3.8964   -0.7494   -0.2594 C.3       1 <0>         0.0722
      8 H1          4.7582   -0.2250   -0.6721 H         1 <0>         0.1485
      9 C8          4.1465   -1.0578    1.2205 C.3       1 <0>         0.1113
     10 N1          5.2659   -2.0075    1.3162 N.pl3     1 <0>        -0.6269
     11 C9          5.2178   -3.2216    0.4869 C.3       1 <0>         0.1020
     12 C10         4.9171   -2.8111   -0.9583 C.3       1 <0>        -0.0219
     13 N2          3.6902   -2.0050   -0.9921 N.4       1 <0>        -0.5039
     14 C11         6.3391   -1.7642    2.1659 C.ar      1 <0>         0.3905
     15 C12         6.2617   -0.7304    3.0936 C.ar      1 <0>        -0.1715
     16 C13         7.3472   -0.4995    3.9389 C.ar      1 <0>        -0.0391
     17 C14         8.4716   -1.3244    3.8134 C.ar      1 <0>        -0.1827
     18 C15         8.4673   -2.3279    2.8669 C.ar      1 <0>         0.1523
     19 N3          7.4210   -2.5219    2.0872 N.ar      1 <0>        -0.5201
     20 C16         7.3114    0.5900    4.9423 C.2       1 <0>         0.5572
     21 O1          6.3273    1.2965    5.0371 O.2       1 <0>        -0.5242
     22 N4          8.3702    0.7973    5.7500 N.am      1 <0>        -0.7101
     23 C17         8.3348    1.8746    6.7422 C.3       1 <0>         0.1600
     24 C18         9.6314    1.8932    7.5100 C.ar      1 <0>        -0.1105
     25 C19         9.7011    1.3138    8.7631 C.ar      1 <0>        -0.0865
     26 C20        10.8903    1.3308    9.4675 C.ar      1 <0>        -0.1138
     27 C21        12.0107    1.9271    8.9191 C.ar      1 <0>        -0.0934
     28 C22        11.9423    2.5066    7.6664 C.ar      1 <0>        -0.1106
     29 C23        10.7536    2.4849    6.9585 C.ar      1 <0>        -0.0217
     30 Cl1        10.6685    3.2068    5.3820 Cl        1 <0>        -0.0614
     31 H2         -0.4575    2.3271   -0.7284 H         1 <0>         0.1373
     32 H3          1.7839    3.3410   -0.8353 H         1 <0>         0.1385
     33 H4          3.7871    1.9258   -0.6175 H         1 <0>         0.1343
     34 H5          1.3077   -1.5183   -0.1932 H         1 <0>         0.1203
     35 H6         -0.6955   -0.1033   -0.4124 H         1 <0>         0.1369
     36 H7          4.4000   -0.1385    1.7485 H         1 <0>         0.1298
     37 H8          3.2521   -1.5006    1.6587 H         1 <0>         0.0969
     38 H9          6.1795   -3.7329    0.5299 H         1 <0>         0.1410
     39 H10         4.4315   -3.8829    0.8510 H         1 <0>         0.0892
     40 H11         5.7481   -2.2244   -1.3499 H         1 <0>         0.1360
     41 H12         4.7824   -3.7037   -1.5692 H         1 <0>         0.1480
     42 H13         2.9372   -2.5229   -0.5644 H         1 <0>         0.4244
     43 H14         5.3756   -0.1163    3.1582 H         1 <0>         0.1466
     44 H15         9.3317   -1.1766    4.4496 H         1 <0>         0.1425
     45 H16         9.3318   -2.9672    2.7657 H         1 <0>         0.1713
     46 H17         9.1557    0.2333    5.6743 H         1 <0>         0.4039
     47 H18         8.1985    2.8303    6.2361 H         1 <0>         0.0879
     48 H19         7.5069    1.7069    7.4311 H         1 <0>         0.0867
     49 H20         8.8262    0.8482    9.1921 H         1 <0>         0.1356
     50 H21        10.9442    0.8783   10.4467 H         1 <0>         0.1351
     51 H22        12.9395    1.9403    9.4701 H         1 <0>         0.1374
     52 H23        12.8175    2.9726    7.2384 H         1 <0>         0.1382
     53 H24         3.4511   -1.7984   -1.9504 H         1 <0>         0.4334
@<TRIPOS>BOND
     1    1    6 ar
     2    1    2 ar
     3    1   31 1
     4    2    3 ar
     5    2   32 1
     6    3    4 ar
     7    3   33 1
     8    4    5 ar
     9    4    7 1
    10    5    6 ar
    11    5   34 1
    12    6   35 1
    13    7    8 1
    14    7   13 1
    15    7    9 1
    16    9   10 1
    17    9   36 1
    18    9   37 1
    19   10   11 1
    20   10   14 1
    21   11   12 1
    22   11   38 1
    23   11   39 1
    24   12   13 1
    25   12   40 1
    26   12   41 1
    27   13   42 1
    28   13   53 1
    29   14   19 ar
    30   14   15 ar
    31   15   16 ar
    32   15   43 1
    33   16   17 ar
    34   16   20 1
    35   17   18 ar
    36   17   44 1
    37   18   19 ar
    38   18   45 1
    39   20   21 2
    40   20   22 am
    41   22   23 1
    42   22   46 1
    43   23   24 1
    44   23   47 1
    45   23   48 1
    46   24   29 ar
    47   24   25 ar
    48   25   26 ar
    49   25   49 1
    50   26   27 ar
    51   26   50 1
    52   27   28 ar
    53   27   51 1
    54   28   29 ar
    55   28   52 1
    56   29   30 1
@<TRIPOS>MOLECULE
ZINC09500271
   46    48     0     0     0
SMALL
USER_CHARGES
N-(2-acetylbenzofuran-3-yl)-2-[1-(4-bromophenyl)ethylamino]acetamide
@<TRIPOS>ATOM
      1 C1          3.1990    9.2180   -2.4871 C.3       1 <0>        -0.1800
      2 C2          2.5329    9.2623   -1.1104 C.3       1 <0>         0.0850
      3 H1          3.2962    9.1962   -0.3352 H         1 <0>         0.1523
      4 C3          1.7752   10.5563   -0.9604 C.ar      1 <0>        -0.1364
      5 C4          0.5266   10.6968   -1.5369 C.ar      1 <0>        -0.1133
      6 C5         -0.1707   11.8819   -1.3955 C.ar      1 <0>        -0.0777
      7 C6          0.3855   12.9309   -0.6859 C.ar      1 <0>        -0.0690
      8 C7          1.6372   12.7917   -0.1137 C.ar      1 <0>        -0.0793
      9 C8          2.3315   11.6045   -0.2512 C.ar      1 <0>        -0.0786
     10 Br1        -0.5646   14.5551   -0.4988 Br        1 <0>        -0.0156
     11 C9          2.3048    6.9224   -0.5314 C.3       1 <0>        -0.0220
     12 C10         1.3210    5.7874   -0.4091 C.2       1 <0>         0.4952
     13 O1          0.1506    5.9687   -0.6697 O.2       1 <0>        -0.4955
     14 N1          1.7419    4.5708   -0.0100 N.am      1 <0>        -0.6088
     15 C11         0.8525    3.5075    0.0281 C.2       1 <0>         0.1476
     16 C12        -0.3614    3.3384   -0.7783 C.ar      1 <0>        -0.1495
     17 C13        -0.9852    4.1065   -1.7632 C.ar      1 <0>        -0.0399
     18 C14        -2.1406    3.6601   -2.3406 C.ar      1 <0>        -0.1413
     19 C15        -2.6971    2.4491   -1.9528 C.ar      1 <0>        -0.0609
     20 C16        -2.0969    1.6771   -0.9818 C.ar      1 <0>        -0.1155
     21 C17        -0.9201    2.1110   -0.3805 C.ar      1 <0>         0.0962
     22 O2         -0.1323    1.5829    0.5771 O.3       1 <0>        -0.1600
     23 C18         0.9258    2.3851    0.8344 C.2       1 <0>        -0.0761
     24 C19         1.9375    2.1226    1.7757 C.2       1 <0>         0.4327
     25 O3          2.7847    2.9626    2.0074 O.2       1 <0>        -0.4577
     26 C20         1.9709    0.7998    2.4969 C.3       1 <0>        -0.1890
     27 H2          2.4356    9.2840   -3.2624 H         1 <0>         0.0863
     28 H3          3.8889   10.0562   -2.5841 H         1 <0>         0.1126
     29 H4          3.7469    8.2820   -2.5956 H         1 <0>         0.0862
     30 H5          0.0942    9.8791   -2.0943 H         1 <0>         0.1315
     31 H6         -1.1480   11.9900   -1.8421 H         1 <0>         0.1467
     32 H7          2.0720   13.6107    0.4400 H         1 <0>         0.1482
     33 H8          3.3089   11.4959    0.1952 H         1 <0>         0.1448
     34 H9          2.7671    7.1085    0.4380 H         1 <0>         0.1704
     35 H10         3.0749    6.6592   -1.2566 H         1 <0>         0.1689
     36 H11         2.6669    4.4390    0.2505 H         1 <0>         0.4328
     37 H12        -0.5563    5.0498   -2.0677 H         1 <0>         0.1416
     38 H13        -2.6238    4.2533   -3.1028 H         1 <0>         0.1362
     39 H14        -3.6107    2.1082   -2.4169 H         1 <0>         0.1455
     40 H15        -2.5397    0.7369   -0.6879 H         1 <0>         0.1448
     41 H16         1.2073    0.2326    2.1884 H         1 <0>         0.0785
     42 H17         2.9111    0.2921    2.2813 H         1 <0>         0.1048
     43 H18         1.8873    0.9691    3.5704 H         1 <0>         0.1043
     44 N2          1.5926    8.1330   -0.9817 N.4       1 <0>        -0.5071
     45 H19         1.1563    7.9500   -1.8930 H         1 <0>         0.4376
     46 H20         0.8664    8.3733   -0.2968 H         1 <0>         0.4424
@<TRIPOS>BOND
     1    1    2 1
     2    1   27 1
     3    1   28 1
     4    1   29 1
     5    2    3 1
     6    2    4 1
     7    2   44 1
     8    4    9 ar
     9    4    5 ar
    10    5    6 ar
    11    5   30 1
    12    6    7 ar
    13    6   31 1
    14    7    8 ar
    15    7   10 1
    16    8    9 ar
    17    8   32 1
    18    9   33 1
    19   11   12 1
    20   11   34 1
    21   11   35 1
    22   11   44 1
    23   12   13 2
    24   12   14 am
    25   14   15 1
    26   14   36 1
    27   15   23 2
    28   15   16 1
    29   16   21 ar
    30   16   17 ar
    31   17   18 ar
    32   17   37 1
    33   18   19 ar
    34   18   38 1
    35   19   20 ar
    36   19   39 1
    37   20   21 ar
    38   20   40 1
    39   21   22 1
    40   22   23 1
    41   23   24 1
    42   24   25 2
    43   24   26 1
    44   26   41 1
    45   26   42 1
    46   26   43 1
    47   44   45 1
    48   44   46 1
@<TRIPOS>MOLECULE
ZINC14160063
   61    64     0     0     0
SMALL
USER_CHARGES
(2S)-1-[(2R)-2-ethyl-1-piperidyl]-2-[[(2S)-2-(1H-indol-3-yl)-2-(2-thienyl)ethyl]amino]propan-1-one
@<TRIPOS>ATOM
      1 C1         -4.5952   12.3355   -3.8546 C.3       1 <0>        -0.1643
      2 C2         -4.9449   10.9589   -3.2856 C.3       1 <0>        -0.1124
      3 C3         -5.7325   10.1617   -4.3273 C.3       1 <0>         0.1434
      4 H1         -5.1363   10.0555   -5.2335 H         1 <0>         0.0858
      5 C4         -7.0398   10.8900   -4.6549 C.3       1 <0>        -0.1352
      6 C5         -7.8825   10.0209   -5.5911 C.3       1 <0>        -0.1265
      7 C6         -8.2258    8.7021   -4.8945 C.3       1 <0>        -0.1369
      8 C7         -6.9274    7.9469   -4.5722 C.3       1 <0>         0.0882
      9 N1         -6.0536    8.8322   -3.7904 N.am      1 <0>        -0.5808
     10 C8         -5.5516    8.4304   -2.6060 C.2       1 <0>         0.5022
     11 O1         -4.9148    9.2045   -1.9232 O.2       1 <0>        -0.5171
     12 C9         -5.7815    7.0192   -2.1299 C.3       1 <0>         0.0026
     13 H2         -5.6286    6.3270   -2.9579 H         1 <0>         0.1603
     14 C10        -7.2138    6.8835   -1.6095 C.3       1 <0>        -0.1837
     15 C11        -4.5994    5.2597   -0.9596 C.3       1 <0>        -0.0012
     16 C12        -3.6123    4.9741    0.1740 C.3       1 <0>         0.0726
     17 H3         -2.7029    5.5546    0.0187 H         1 <0>         0.1191
     18 C13        -4.2350    5.3589    1.4912 C.2       1 <0>        -0.2052
     19 C14        -3.8098    6.2666    2.4036 C.2       1 <0>        -0.1198
     20 C15        -4.5504    6.4571    3.5551 C.2       1 <0>        -0.1658
     21 C16        -5.6801    5.7306    3.7378 C.2       1 <0>        -0.1399
     22 S1         -5.7285    4.7431    2.2513 S.3       1 <0>         0.0416
     23 C17        -3.2746    3.5055    0.1879 C.2       1 <0>        -0.1943
     24 C18        -4.1382    2.4890    0.3401 C.2       1 <0>         0.0855
     25 N2         -3.4678    1.2969    0.2979 N.pl3     1 <0>        -0.5841
     26 H4         -3.8783    0.4231    0.3919 H         1 <0>         0.4235
     27 C19        -2.1237    1.5224    0.1015 C.ar      1 <0>         0.0964
     28 C20        -1.9440    2.9157    0.0219 C.ar      1 <0>        -0.0925
     29 C21        -0.6679    3.4427   -0.1838 C.ar      1 <0>        -0.0816
     30 C22         0.4027    2.6014   -0.3017 C.ar      1 <0>        -0.1312
     31 C23         0.2313    1.2266   -0.2191 C.ar      1 <0>        -0.0918
     32 C24        -1.0194    0.6852   -0.0165 C.ar      1 <0>        -0.1224
     33 H5         -3.9570   12.8685   -3.1498 H         1 <0>         0.0617
     34 H6         -4.0689   12.2143   -4.8014 H         1 <0>         0.0552
     35 H7         -5.5105   12.9044   -4.0178 H         1 <0>         0.0572
     36 H8         -5.5500   11.0802   -2.3872 H         1 <0>         0.0751
     37 H9         -4.0278   10.4250   -3.0367 H         1 <0>         0.0832
     38 H10        -7.5933   11.0758   -3.7345 H         1 <0>         0.0704
     39 H11        -6.8153   11.8385   -5.1428 H         1 <0>         0.0868
     40 H12        -8.8024   10.5474   -5.8455 H         1 <0>         0.0757
     41 H13        -7.3186    9.8147   -6.5009 H         1 <0>         0.0697
     42 H14        -8.7681    8.9086   -3.9718 H         1 <0>         0.0714
     43 H15        -8.8455    8.0934   -5.5530 H         1 <0>         0.0862
     44 H16        -6.4267    7.6638   -5.4981 H         1 <0>         0.0873
     45 H17        -7.1572    7.0539   -3.9909 H         1 <0>         0.0873
     46 H18        -7.9146    7.0341   -2.4306 H         1 <0>         0.1134
     47 H19        -7.3549    5.8876   -1.1894 H         1 <0>         0.0968
     48 H20        -7.3923    7.6320   -0.8375 H         1 <0>         0.0922
     49 H21        -4.1850    4.9000   -1.9014 H         1 <0>         0.1456
     50 H22        -5.5412    4.7492   -0.7585 H         1 <0>         0.1325
     51 H23        -2.9057    6.8323    2.2337 H         1 <0>         0.1392
     52 H24        -4.2340    7.1744    4.2979 H         1 <0>         0.1435
     53 H25        -6.3732    5.7476    4.5659 H         1 <0>         0.1930
     54 H26        -5.2032    2.5966    0.4834 H         1 <0>         0.1668
     55 H27        -0.5270    4.5115   -0.2491 H         1 <0>         0.1203
     56 H28         1.3898    3.0097   -0.4608 H         1 <0>         0.1277
     57 H29         1.0870    0.5746   -0.3150 H         1 <0>         0.1316
     58 H30        -1.1425   -0.3860    0.0459 H         1 <0>         0.1257
     59 N3         -4.8317    6.7140   -1.0433 N.4       1 <0>        -0.5043
     60 H31        -5.2181    7.0471   -0.1523 H         1 <0>         0.4363
     61 H32        -3.9407    7.1892   -1.2289 H         1 <0>         0.4376
@<TRIPOS>BOND
     1    1    2 1
     2    1   33 1
     3    1   34 1
     4    1   35 1
     5    2    3 1
     6    2   36 1
     7    2   37 1
     8    3    4 1
     9    3    9 1
    10    3    5 1
    11    5    6 1
    12    5   38 1
    13    5   39 1
    14    6    7 1
    15    6   40 1
    16    6   41 1
    17    7    8 1
    18    7   42 1
    19    7   43 1
    20    8    9 1
    21    8   44 1
    22    8   45 1
    23    9   10 am
    24   10   11 2
    25   10   12 1
    26   12   13 1
    27   12   14 1
    28   12   59 1
    29   14   46 1
    30   14   47 1
    31   14   48 1
    32   15   16 1
    33   15   49 1
    34   15   50 1
    35   15   59 1
    36   16   17 1
    37   16   18 1
    38   16   23 1
    39   18   22 1
    40   18   19 2
    41   19   20 1
    42   19   51 1
    43   20   21 2
    44   20   52 1
    45   21   22 1
    46   21   53 1
    47   23   28 1
    48   23   24 2
    49   24   25 1
    50   24   54 1
    51   25   26 1
    52   25   27 1
    53   27   32 ar
    54   27   28 ar
    55   28   29 ar
    56   29   30 ar
    57   29   55 1
    58   30   31 ar
    59   30   56 1
    60   31   32 ar
    61   31   57 1
    62   32   58 1
    63   59   60 1
    64   59   61 1
@<TRIPOS>MOLECULE
ZINC36245384
   50    53     0     0     0
SMALL
USER_CHARGES

@<TRIPOS>ATOM
      1 C1          0.6912    1.2182   -0.4833 C.2       1 <0>        -0.1716
      2 C2          0.5896   -0.0853   -0.4021 C.2       1 <0>        -0.1682
      3 C3          1.8310   -0.9325   -0.2918 C.3       1 <0>        -0.0528
      4 C4          1.7332   -1.8104    0.9292 C.ar      1 <0>        -0.0957
      5 C5          1.3604   -3.1443    0.7863 C.ar      1 <0>        -0.0782
      6 C6          1.2628   -3.9638    1.8695 C.ar      1 <0>        -0.0963
      7 C7          1.5413   -3.4606    3.1509 C.ar      1 <0>        -0.0719
      8 C8          1.4518   -4.2773    4.2941 C.ar      1 <0>        -0.0772
      9 C9          1.7375   -3.7202    5.5078 C.ar      1 <0>        -0.1507
     10 C10         2.1051   -2.3786    5.5876 C.ar      1 <0>         0.1367
     11 N1          2.1873   -1.6216    4.5206 N.ar      1 <0>        -0.4512
     12 C11         1.9210   -2.1049    3.3038 C.ar      1 <0>         0.1094
     13 C12         2.0170   -1.2870    2.1582 C.ar      1 <0>         0.1675
     14 O1          2.3845    0.0153    2.2777 O.3       1 <0>        -0.4720
     15 C13         0.8572   -5.4046    1.6941 C.3       1 <0>         0.2409
     16 H1          0.2975   -5.7336    2.5696 H         1 <0>         0.1180
     17 C14         2.0894   -6.2576    1.5359 C.ar      1 <0>        -0.1194
     18 C15         2.7340   -6.3207    0.3146 C.ar      1 <0>        -0.0870
     19 C16         3.8641   -7.1029    0.1688 C.ar      1 <0>        -0.1043
     20 C17         4.3503   -7.8229    1.2456 C.ar      1 <0>        -0.0211
     21 C18         3.7048   -7.7593    2.4677 C.ar      1 <0>        -0.1003
     22 C19         2.5780   -6.9723    2.6136 C.ar      1 <0>        -0.0917
     23 Cl1         5.7694   -8.8060    1.0632 Cl        1 <0>        -0.0481
     24 N2          0.0174   -5.5336    0.5007 N.pl3     1 <0>        -0.6976
     25 C20        -0.8740   -6.5944    0.3895 C.ar      1 <0>         0.4489
     26 C21        -0.9677   -7.5269    1.4179 C.ar      1 <0>        -0.1953
     27 C22        -1.8588   -8.5773    1.2941 C.ar      1 <0>         0.0402
     28 C23        -2.6294   -8.6605    0.1417 C.ar      1 <0>        -0.1672
     29 C24        -2.4849   -7.7001   -0.8390 C.ar      1 <0>         0.1494
     30 N3         -1.6302   -6.7054   -0.6916 N.ar      1 <0>        -0.5011
     31 H2          1.6646    1.6858   -0.4713 H         1 <0>         0.1037
     32 H3         -0.1983    1.8250   -0.5669 H         1 <0>         0.1023
     33 H4         -0.3839   -0.5529   -0.4141 H         1 <0>         0.1064
     34 H5          1.9257   -1.5558   -1.1809 H         1 <0>         0.0829
     35 H6          2.7050   -0.2868   -0.2059 H         1 <0>         0.0919
     36 H7          1.1452   -3.5345   -0.1974 H         1 <0>         0.1222
     37 H8          1.1649   -5.3154    4.2136 H         1 <0>         0.1364
     38 H9          1.6782   -4.3188    6.4048 H         1 <0>         0.1471
     39 H10         2.3279   -1.9510    6.5540 H         1 <0>         0.1689
     40 H11         1.6436    0.6225    2.4099 H         1 <0>         0.3982
     41 H12         2.3541   -5.7589   -0.5260 H         1 <0>         0.1252
     42 H13         4.3674   -7.1524   -0.7855 H         1 <0>         0.1401
     43 H14         4.0837   -8.3213    3.3085 H         1 <0>         0.1438
     44 H15         2.0768   -6.9189    3.5688 H         1 <0>         0.1359
     45 H16         0.0834   -4.8789   -0.2120 H         1 <0>         0.4184
     46 H17        -0.3527   -7.4320    2.3006 H         1 <0>         0.1753
     47 H18        -1.9530   -9.3165    2.0759 H         1 <0>         0.1757
     48 H19        -3.3343   -9.4687    0.0141 H         1 <0>         0.1824
     49 H20        -3.0819   -7.7612   -1.7369 H         1 <0>         0.2085
     50 H21        -1.5511   -6.0415   -1.3944 H         1 <0>         0.4422
@<TRIPOS>BOND
     1    1    2 2
     2    1   31 1
     3    1   32 1
     4    2    3 1
     5    2   33 1
     6    3    4 1
     7    3   34 1
     8    3   35 1
     9    4   13 ar
    10    4    5 ar
    11    5    6 ar
    12    5   36 1
    13    6    7 ar
    14    6   15 1
    15    7   12 ar
    16    7    8 ar
    17    8    9 ar
    18    8   37 1
    19    9   10 ar
    20    9   38 1
    21   10   11 ar
    22   10   39 1
    23   11   12 ar
    24   12   13 ar
    25   13   14 1
    26   14   40 1
    27   15   16 1
    28   15   17 1
    29   15   24 1
    30   17   22 ar
    31   17   18 ar
    32   18   19 ar
    33   18   41 1
    34   19   20 ar
    35   19   42 1
    36   20   21 ar
    37   20   23 1
    38   21   22 ar
    39   21   43 1
    40   22   44 1
    41   24   25 1
    42   24   45 1
    43   25   30 ar
    44   25   26 ar
    45   26   27 ar
    46   26   46 1
    47   27   28 ar
    48   27   47 1
    49   28   29 ar
    50   28   48 1
    51   29   30 ar
    52   29   49 1
    53   30   50 1
@<TRIPOS>MOLECULE
ZINC39696110
   68    71     0     0     0
SMALL
USER_CHARGES

@<TRIPOS>ATOM
      1 C1         -2.7787   -5.0860    6.6959 C.3       1 <0>        -0.1502
      2 C2         -3.9911   -5.8053    6.1012 C.3       1 <0>        -0.0899
      3 C3         -4.4022   -5.1232    4.8218 C.ar      1 <0>        -0.0721
      4 C4         -5.3167   -4.0870    4.8540 C.ar      1 <0>        -0.1107
      5 C5         -5.6938   -3.4613    3.6805 C.ar      1 <0>        -0.1025
      6 C6         -5.1560   -3.8713    2.4749 C.ar      1 <0>        -0.1044
      7 C7         -4.2408   -4.9069    2.4428 C.ar      1 <0>        -0.1156
      8 C8         -3.8605   -5.5298    3.6168 C.ar      1 <0>        -0.1141
      9 C9         -5.5678   -3.1898    1.1954 C.3       1 <0>         0.1860
     10 H1         -6.5156   -2.6733    1.3476 H         1 <0>         0.0997
     11 C10        -4.4951   -2.1777    0.7885 C.3       1 <0>        -0.1633
     12 N1         -5.7216   -4.1906    0.1366 N.am      1 <0>        -0.7231
     13 C11        -6.5342   -3.9447   -0.9102 C.2       1 <0>         0.5221
     14 O1         -7.1381   -2.8950   -0.9756 O.2       1 <0>        -0.5161
     15 C12        -6.6924   -4.9742   -1.9993 C.3       1 <0>        -0.1143
     16 H2         -5.7424   -5.4738   -2.1891 H         1 <0>         0.1141
     17 C13        -7.2202   -4.3128   -3.2922 C.3       1 <0>         0.1166
     18 N2         -8.1491   -5.3117   -3.8713 N.am      1 <0>        -0.6180
     19 C14        -8.8570   -5.8800   -2.6991 C.3       1 <0>         0.0972
     20 C15        -7.7698   -6.0014   -1.6128 C.3       1 <0>        -0.0729
     21 C16        -8.3530   -5.6657   -0.2436 C.3       1 <0>        -0.1494
     22 C17        -9.3797   -6.7334    0.1446 C.3       1 <0>        -0.0072
     23 N3         -8.7314   -8.0500    0.1760 N.4       1 <0>        -0.5050
     24 C18        -8.2554   -8.4057   -1.1662 C.3       1 <0>        -0.0111
     25 C19        -7.1811   -7.4088   -1.6098 C.3       1 <0>        -0.1365
     26 C20        -8.3132   -5.6316   -5.1702 C.2       1 <0>         0.5850
     27 O2         -7.5848   -5.1444   -6.0129 O.2       1 <0>        -0.4960
     28 C21        -9.3779   -6.5740   -5.5699 C.ar      1 <0>        -0.1536
     29 C22       -10.5968   -6.5859   -4.8878 C.ar      1 <0>        -0.0749
     30 C23       -11.5871   -7.4675   -5.2648 C.ar      1 <0>        -0.1111
     31 C24       -11.3785   -8.3419   -6.3177 C.ar      1 <0>        -0.0581
     32 C25       -10.1748   -8.3386   -7.0004 C.ar      1 <0>         0.0636
     33 C26        -9.1726   -7.4541   -6.6361 C.ar      1 <0>         0.1305
     34 F1         -7.9992   -7.4458   -7.3057 F         1 <0>        -0.1043
     35 F2         -9.9787   -9.1949   -8.0267 F         1 <0>        -0.1150
     36 C27       -12.4672   -9.3023   -6.7220 C.3       1 <0>        -0.1267
     37 H3         -2.4814   -5.5795    7.6212 H         1 <0>         0.0628
     38 H4         -1.9527   -5.1180    5.9854 H         1 <0>         0.0567
     39 H5         -3.0384   -4.0482    6.9047 H         1 <0>         0.0576
     40 H6         -3.7314   -6.8431    5.8923 H         1 <0>         0.0727
     41 H7         -4.8171   -5.7734    6.8116 H         1 <0>         0.0740
     42 H8         -5.7368   -3.7666    5.7959 H         1 <0>         0.1264
     43 H9         -6.4088   -2.6522    3.7056 H         1 <0>         0.1258
     44 H10        -3.8210   -5.2275    1.5008 H         1 <0>         0.1178
     45 H11        -3.1427   -6.3363    3.5921 H         1 <0>         0.1240
     46 H12        -4.7929   -1.6847   -0.1369 H         1 <0>         0.0674
     47 H13        -4.3806   -1.4330    1.5763 H         1 <0>         0.0727
     48 H14        -3.5473   -2.6941    0.6363 H         1 <0>         0.0611
     49 H15        -5.2387   -5.0302    0.1890 H         1 <0>         0.3982
     50 H16        -7.7517   -3.3906   -3.0576 H         1 <0>         0.1037
     51 H17        -6.3984   -4.1143   -3.9802 H         1 <0>         0.0991
     52 H18        -9.6503   -5.2081   -2.3712 H         1 <0>         0.0910
     53 H19        -9.2642   -6.8620   -2.9399 H         1 <0>         0.0896
     54 H20        -7.5535   -5.6434    0.4969 H         1 <0>         0.1018
     55 H21        -8.8393   -4.6910   -0.2843 H         1 <0>         0.1249
     56 H22        -9.7860   -6.5051    1.1300 H         1 <0>         0.1400
     57 H23       -10.1873   -6.7437   -0.5874 H         1 <0>         0.1330
     58 H24        -7.9491   -8.0231    0.8127 H         1 <0>         0.4290
     59 H25        -7.8328   -9.4103   -1.1471 H         1 <0>         0.1408
     60 H26        -9.0897   -8.3762   -1.8670 H         1 <0>         0.1325
     61 H27        -6.8410   -7.6631   -2.6137 H         1 <0>         0.1190
     62 H28        -6.3392   -7.4496   -0.9187 H         1 <0>         0.0984
     63 H29       -10.7629   -5.9055   -4.0657 H         1 <0>         0.1441
     64 H30       -12.5291   -7.4764   -4.7367 H         1 <0>         0.1498
     65 H31       -13.1031   -8.8350   -7.4738 H         1 <0>         0.0900
     66 H32       -12.0194  -10.2059   -7.1356 H         1 <0>         0.0800
     67 H33       -13.0665   -9.5606   -5.8489 H         1 <0>         0.0832
     68 H34        -9.3943   -8.7424    0.4909 H         1 <0>         0.4344
@<TRIPOS>BOND
     1    1    2 1
     2    1   37 1
     3    1   38 1
     4    1   39 1
     5    2    3 1
     6    2   40 1
     7    2   41 1
     8    3    8 ar
     9    3    4 ar
    10    4    5 ar
    11    4   42 1
    12    5    6 ar
    13    5   43 1
    14    6    7 ar
    15    6    9 1
    16    7    8 ar
    17    7   44 1
    18    8   45 1
    19    9   10 1
    20    9   11 1
    21    9   12 1
    22   11   46 1
    23   11   47 1
    24   11   48 1
    25   12   13 am
    26   12   49 1
    27   13   14 2
    28   13   15 1
    29   15   16 1
    30   15   20 1
    31   15   17 1
    32   17   18 1
    33   17   50 1
    34   17   51 1
    35   18   19 1
    36   18   26 am
    37   19   20 1
    38   19   52 1
    39   19   53 1
    40   20   25 1
    41   20   21 1
    42   21   22 1
    43   21   54 1
    44   21   55 1
    45   22   23 1
    46   22   56 1
    47   22   57 1
    48   23   24 1
    49   23   58 1
    50   23   68 1
    51   24   25 1
    52   24   59 1
    53   24   60 1
    54   25   61 1
    55   25   62 1
    56   26   27 2
    57   26   28 1
    58   28   33 ar
    59   28   29 ar
    60   29   30 ar
    61   29   63 1
    62   30   31 ar
    63   30   64 1
    64   31   32 ar
    65   31   36 1
    66   32   33 ar
    67   32   35 1
    68   33   34 1
    69   36   65 1
    70   36   66 1
    71   36   67 1
@<TRIPOS>MOLECULE
ZINC63295494
   54    57     0     0     0
SMALL
USER_CHARGES

@<TRIPOS>ATOM
      1 C1         -0.0187    1.5258    0.0104 C.3       1 <0>        -0.1378
      2 C2          0.0021   -0.0041    0.0020 C.3       1 <0>         0.0902
      3 H1          0.5226   -0.3589   -0.8875 H         1 <0>         0.0745
      4 C3         -1.4580   -0.5483    0.0071 C.3       1 <0>        -0.0924
      5 H2         -2.0895    0.0119    0.6967 H         1 <0>         0.1226
      6 S1         -1.1366   -2.2575    0.6240 S.3       1 <0>        -0.1642
      7 C4          0.5091   -1.9609    1.3945 C.3       1 <0>         0.1839
      8 H3          1.2870   -2.5181    0.8725 H         1 <0>         0.0952
      9 N1          0.6899   -0.4976    1.2094 N.3       1 <0>        -0.6844
     10 C5          0.4873   -2.3196    2.8580 C.ar      1 <0>        -0.1515
     11 C6         -0.3319   -3.3437    3.3098 C.ar      1 <0>         0.1729
     12 C7         -0.3499   -3.6717    4.6577 C.ar      1 <0>        -0.2190
     13 C8          0.4476   -2.9784    5.5480 C.ar      1 <0>        -0.0423
     14 C9          1.2637   -1.9581    5.0976 C.ar      1 <0>        -0.1930
     15 C10         1.2886   -1.6316    3.7516 C.ar      1 <0>         0.1694
     16 F1          2.0915   -0.6379    3.3123 F         1 <0>        -0.1240
     17 O1         -1.1161   -4.0246    2.4334 O.3       1 <0>        -0.2931
     18 C11        -1.9342   -5.0666    2.9690 C.3       1 <0>         0.0236
     19 C12        -2.0449   -0.5637   -1.3808 C.2       1 <0>         0.5465
     20 O2         -1.3382   -0.8099   -2.3353 O.2       1 <0>        -0.5134
     21 N2         -3.3549   -0.3039   -1.5614 N.am      1 <0>        -0.7303
     22 C13        -3.9255   -0.3189   -2.9107 C.3       1 <0>         0.1269
     23 C14        -5.4188    0.0055   -2.8366 C.3       1 <0>        -0.1055
     24 C15        -6.0057   -0.0099   -4.2246 C.2       1 <0>         0.0706
     25 C16        -6.6342   -1.0431   -4.8303 C.ar      1 <0>        -0.1669
     26 C17        -6.9465   -2.4098   -4.3953 C.ar      1 <0>        -0.0122
     27 C18        -7.6006   -3.2349   -5.2440 C.ar      1 <0>        -0.1504
     28 C19        -7.9865   -2.8188   -6.5257 C.ar      1 <0>         0.0553
     29 C20        -7.7350   -1.5789   -6.9963 C.ar      1 <0>        -0.2102
     30 C21        -7.0529   -0.6280   -6.1882 C.ar      1 <0>         0.3281
     31 N3         -6.6971    0.6135   -6.4132 N.pl3     1 <0>        -0.5849
     32 C22        -6.0170    1.1289   -5.2197 C.3       1 <0>         0.0605
     33 H4          1.0039    1.9031    0.0027 H         1 <0>         0.0680
     34 H5         -0.5459    1.8868   -0.8726 H         1 <0>         0.0628
     35 H6         -0.5289    1.8773    0.9072 H         1 <0>         0.0708
     36 H7          1.6692   -0.2554    1.1921 H         1 <0>         0.3659
     37 H8         -0.9875   -4.4686    5.0111 H         1 <0>         0.1380
     38 H9          0.4328   -3.2340    6.5972 H         1 <0>         0.1388
     39 H10         1.8859   -1.4173    5.7953 H         1 <0>         0.1405
     40 H11        -1.3020   -5.8184    3.4414 H         1 <0>         0.0580
     41 H12        -2.6167   -4.6487    3.7091 H         1 <0>         0.0592
     42 H13        -2.5081   -5.5276    2.1651 H         1 <0>         0.1009
     43 H14        -3.9201   -0.1069   -0.7981 H         1 <0>         0.4081
     44 H15        -3.4219    0.4264   -3.5264 H         1 <0>         0.0796
     45 H16        -3.7896   -1.3064   -3.3517 H         1 <0>         0.0803
     46 H17        -5.9224   -0.7397   -2.2209 H         1 <0>         0.1169
     47 H18        -5.5547    0.9931   -2.3956 H         1 <0>         0.1201
     48 H19        -6.6579   -2.7514   -3.4123 H         1 <0>         0.1608
     49 H20        -7.8314   -4.2409   -4.9261 H         1 <0>         0.1583
     50 H21        -8.5060   -3.5191   -7.1629 H         1 <0>         0.1613
     51 H22        -8.0532   -1.3076   -7.9921 H         1 <0>         0.1609
     52 H23        -6.5630    1.9793   -4.8113 H         1 <0>         0.1755
     53 H24        -4.9966    1.4210   -5.4680 H         1 <0>         0.1745
     54 H25        -6.8599    1.1097   -7.2306 H         1 <0>         0.4562
@<TRIPOS>BOND
     1    1    2 1
     2    1   33 1
     3    1   34 1
     4    1   35 1
     5    2    3 1
     6    2    9 1
     7    2    4 1
     8    4    5 1
     9    4    6 1
    10    4   19 1
    11    6    7 1
    12    7    8 1
    13    7    9 1
    14    7   10 1
    15    9   36 1
    16   10   15 ar
    17   10   11 ar
    18   11   12 ar
    19   11   17 1
    20   12   13 ar
    21   12   37 1
    22   13   14 ar
    23   13   38 1
    24   14   15 ar
    25   14   39 1
    26   15   16 1
    27   17   18 1
    28   18   40 1
    29   18   41 1
    30   18   42 1
    31   19   20 2
    32   19   21 am
    33   21   22 1
    34   21   43 1
    35   22   23 1
    36   22   44 1
    37   22   45 1
    38   23   24 1
    39   23   46 1
    40   23   47 1
    41   24   32 1
    42   24   25 2
    43   25   30 ar
    44   25   26 ar
    45   26   27 ar
    46   26   48 1
    47   27   28 ar
    48   27   49 1
    49   28   29 ar
    50   28   50 1
    51   29   30 ar
    52   29   51 1
    53   30   31 2
    54   31   32 1
    55   31   54 1
    56   32   52 1
    57   32   53 1
@<TRIPOS>MOLECULE
ZINC20136043
   56    59     0     0     0
SMALL
USER_CHARGES
[(2S,4R,5R)-5-(2-fluorophenyl)-4-[[(6-fluoro-2-quinolyl)methylamino]methyl]-1-methyl-pyrrolidin-2-yl]methanol
@<TRIPOS>ATOM
      1 C1          2.4433   -2.9692    1.9345 C.3       1 <0>        -0.0527
      2 N1          2.5292   -2.6732    0.4982 N.4       1 <0>        -0.4037
      3 C2          2.8419   -3.8990   -0.2802 C.3       1 <0>         0.0346
      4 H1          2.3467   -4.7826    0.1488 H         1 <0>         0.1611
      5 C3          2.3798   -3.5361   -1.7139 C.3       1 <0>        -0.1531
      6 C4          1.1004   -2.7047   -1.4647 C.3       1 <0>        -0.1142
      7 H2          0.1831   -3.2939   -1.6111 H         1 <0>         0.1419
      8 C5          1.2329   -2.1856   -0.0210 C.3       1 <0>         0.0999
      9 H3          0.4212   -2.5412    0.6307 H         1 <0>         0.1629
     10 C6          1.2108   -0.6788   -0.0131 C.ar      1 <0>        -0.1900
     11 C7          2.3973    0.0301   -0.0207 C.ar      1 <0>        -0.1067
     12 C8          2.3774    1.4122   -0.0126 C.ar      1 <0>        -0.0980
     13 C9          1.1707    2.0872    0.0021 C.ar      1 <0>        -0.0552
     14 C10        -0.0167    1.3806    0.0096 C.ar      1 <0>        -0.1294
     15 C11         0.0021   -0.0041    0.0020 C.ar      1 <0>         0.1215
     16 F1         -1.1583   -0.6959    0.0089 F         1 <0>        -0.1236
     17 C12         1.0266   -1.5329   -2.4457 C.3       1 <0>        -0.0077
     18 N2          0.7808   -2.0437   -3.8009 N.4       1 <0>        -0.5381
     19 C13         0.7036   -0.9441   -4.7719 C.3       1 <0>         0.0624
     20 C14         0.4512   -1.5054   -6.1475 C.ar      1 <0>         0.0742
     21 C15        -0.8579   -1.5844   -6.6180 C.ar      1 <0>        -0.1636
     22 C16        -1.1051   -2.0854   -7.8643 C.ar      1 <0>        -0.0341
     23 C17        -0.0100   -2.5207   -8.6344 C.ar      1 <0>        -0.0540
     24 C18        -0.1874   -3.0526   -9.9215 C.ar      1 <0>        -0.1460
     25 C19         0.8988   -3.4631  -10.6362 C.ar      1 <0>         0.1414
     26 C20         2.1850   -3.3618  -10.1036 C.ar      1 <0>        -0.1188
     27 C21         2.3909   -2.8511   -8.8597 C.ar      1 <0>        -0.0580
     28 C22         1.2952   -2.4169   -8.0928 C.ar      1 <0>         0.1127
     29 N3          1.4685   -1.9113   -6.8675 N.ar      1 <0>        -0.4384
     30 F2          0.7279   -3.9745  -11.8749 F         1 <0>        -0.1177
     31 C23         4.3435   -4.1909   -0.2545 C.3       1 <0>         0.0650
     32 O1          4.7203   -4.6345    1.0506 O.3       1 <0>        -0.6089
     33 H4          3.4187   -3.3291    2.2937 H         1 <0>         0.1454
     34 H5          1.6814   -3.7442    2.1042 H         1 <0>         0.1215
     35 H6          2.1655   -2.0559    2.4811 H         1 <0>         0.1232
     36 H7          3.1686   -2.9586   -2.2182 H         1 <0>         0.1131
     37 H8          2.1819   -4.4584   -2.2799 H         1 <0>         0.1353
     38 H9          3.3404   -0.4960   -0.0325 H         1 <0>         0.1278
     39 H10         3.3050    1.9653   -0.0181 H         1 <0>         0.1509
     40 H11         1.1563    3.1670    0.0077 H         1 <0>         0.1549
     41 H12        -0.9591    1.9080    0.0170 H         1 <0>         0.1572
     42 H13         0.2066   -0.8607   -2.1529 H         1 <0>         0.1407
     43 H14         1.9775   -0.9802   -2.4290 H         1 <0>         0.1398
     44 H15         1.6008   -2.7159   -4.0937 H         1 <0>         0.4531
     45 H16        -0.1186   -0.2678   -4.4953 H         1 <0>         0.1477
     46 H17         1.6522   -0.3873   -4.7715 H         1 <0>         0.1467
     47 H18        -1.6760   -1.2459   -5.9994 H         1 <0>         0.1475
     48 H19        -2.1132   -2.1505   -8.2464 H         1 <0>         0.1565
     49 H20        -1.1782   -3.1358  -10.3432 H         1 <0>         0.1560
     50 H21         3.0300   -3.6938  -10.6885 H         1 <0>         0.1574
     51 H22         3.3927   -2.7790   -8.4627 H         1 <0>         0.1539
     52 H23         4.5773   -4.9748   -0.9899 H         1 <0>         0.0955
     53 H24         4.8994   -3.2754   -0.5053 H         1 <0>         0.0635
     54 H25         5.7682   -4.8935    1.2622 H         1 <0>         0.4522
     55 H26         3.3165   -1.9118    0.3961 H         1 <0>         0.4397
     56 H27        -0.1701   -2.5964   -3.8176 H         1 <0>         0.4549
@<TRIPOS>BOND
     1    1    2 1
     2    1   33 1
     3    1   34 1
     4    1   35 1
     5    2    8 1
     6    2    3 1
     7    2   55 1
     8    3    4 1
     9    3    5 1
    10    3   31 1
    11    5    6 1
    12    5   36 1
    13    5   37 1
    14    6    7 1
    15    6    8 1
    16    6   17 1
    17    8    9 1
    18    8   10 1
    19   10   15 ar
    20   10   11 ar
    21   11   12 ar
    22   11   38 1
    23   12   13 ar
    24   12   39 1
    25   13   14 ar
    26   13   40 1
    27   14   15 ar
    28   14   41 1
    29   15   16 1
    30   17   18 1
    31   17   42 1
    32   17   43 1
    33   18   19 1
    34   18   44 1
    35   18   56 1
    36   19   20 1
    37   19   45 1
    38   19   46 1
    39   20   29 ar
    40   20   21 ar
    41   21   22 ar
    42   21   47 1
    43   22   23 ar
    44   22   48 1
    45   23   28 ar
    46   23   24 ar
    47   24   25 ar
    48   24   49 1
    49   25   26 ar
    50   25   30 1
    51   26   27 ar
    52   26   50 1
    53   27   28 ar
    54   27   51 1
    55   28   29 ar
    56   31   32 1
    57   31   52 1
    58   31   53 1
    59   32   54 1
@<TRIPOS>MOLECULE
ZINC39693923
   83    87     0     0     0
SMALL
USER_CHARGES

@<TRIPOS>ATOM
      1 C1          0.8085   -0.6767   -1.1161 C.3       1 <0>        -0.1486
      2 C2          0.0214    0.0483   -0.0226 C.3       1 <0>        -0.0715
      3 C3          0.6356   -0.2678    1.3426 C.3       1 <0>        -0.0965
      4 C4         -0.1514    0.4572    2.4361 C.3       1 <0>        -0.1300
      5 C5         -0.0961    1.9661    2.1891 C.3       1 <0>        -0.1234
      6 C6         -0.7103    2.2822    0.8239 C.3       1 <0>        -0.1201
      7 C7          0.0768    1.5572   -0.2696 C.3       1 <0>        -0.1159
      8 C8         -1.4132   -0.4125   -0.0468 C.2       1 <0>         0.5636
      9 O1         -1.8572   -1.0619    0.8762 O.2       1 <0>        -0.5261
     10 N1         -2.2028   -0.1028   -1.0942 N.am      1 <0>        -0.6170
     11 C9         -1.8161    0.5749   -2.3541 C.3       1 <0>         0.1039
     12 C10        -2.6143   -0.1607   -3.4539 C.3       1 <0>        -0.1158
     13 H1         -2.9502    0.5440   -4.2146 H         1 <0>         0.1159
     14 C11        -3.8199   -0.7725   -2.7210 C.3       1 <0>        -0.0722
     15 C12        -3.6530   -0.3690   -1.2489 C.3       1 <0>         0.1039
     16 C13        -3.8013   -2.2925   -2.8504 C.3       1 <0>        -0.1442
     17 C14        -5.0399   -2.8738   -2.1627 C.3       1 <0>        -0.0102
     18 N2         -6.2504   -2.3244   -2.7853 N.4       1 <0>        -0.5039
     19 C15        -6.3068   -0.8727   -2.5757 C.3       1 <0>        -0.0109
     20 C16        -5.1216   -0.2068   -3.2805 C.3       1 <0>        -0.1327
     21 C17        -1.7721   -1.2433   -4.0782 C.2       1 <0>         0.5144
     22 O2         -0.8732   -1.7538   -3.4440 O.2       1 <0>        -0.5082
     23 N3         -2.0180   -1.6442   -5.3412 N.am      1 <0>        -0.7280
     24 C18        -1.1993   -2.6967   -5.9481 C.3       1 <0>         0.1632
     25 C19        -1.6762   -2.9563   -7.3539 C.ar      1 <0>        -0.1523
     26 C20        -2.6597   -3.9004   -7.5854 C.ar      1 <0>        -0.0531
     27 C21        -3.0991   -4.1408   -8.8724 C.ar      1 <0>        -0.1905
     28 C22        -2.5520   -3.4329   -9.9350 C.ar      1 <0>         0.2134
     29 C23        -1.5642   -2.4852   -9.6989 C.ar      1 <0>        -0.1851
     30 C24        -1.1334   -2.2458   -8.4088 C.ar      1 <0>        -0.0470
     31 N4         -2.9937   -3.6739  -11.2380 N.pl3     1 <0>        -0.6437
     32 C25        -2.3349   -3.0385  -12.3897 C.3       1 <0>         0.0976
     33 C26        -2.0045   -4.1237  -13.4198 C.3       1 <0>        -0.0237
     34 N5         -3.2254   -4.8675  -13.7544 N.4       1 <0>        -0.3840
     35 C27        -3.7155   -5.5834  -12.5698 C.3       1 <0>        -0.0238
     36 C28        -4.1271   -4.5750  -11.4980 C.3       1 <0>         0.0979
     37 C29        -2.9312   -5.8336  -14.8213 C.3       1 <0>        -0.0482
     38 H2          1.8211   -0.2759   -1.1614 H         1 <0>         0.0670
     39 H3          0.8492   -1.7420   -0.8888 H         1 <0>         0.0611
     40 H4          0.3159   -0.5288   -2.0771 H         1 <0>         0.0781
     41 H5          0.5962   -1.3428    1.5186 H         1 <0>         0.0696
     42 H6          1.6733    0.0654    1.3602 H         1 <0>         0.0727
     43 H7         -1.1891    0.1239    2.4186 H         1 <0>         0.0778
     44 H8          0.2861    0.2320    3.4087 H         1 <0>         0.0648
     45 H9         -0.6569    2.4826    2.9681 H         1 <0>         0.0635
     46 H10         0.9415    2.2994    2.2066 H         1 <0>         0.0648
     47 H11        -1.7480    1.9490    0.8063 H         1 <0>         0.0544
     48 H12        -0.6709    3.3572    0.6479 H         1 <0>         0.0675
     49 H13         1.1144    1.8904   -0.2521 H         1 <0>         0.0792
     50 H14        -0.3608    1.7824   -1.2422 H         1 <0>         0.0669
     51 H15        -2.0965    1.6277   -2.3209 H         1 <0>         0.0886
     52 H16        -0.7451    0.4712   -2.5282 H         1 <0>         0.1100
     53 H17        -3.9622   -1.1841   -0.5945 H         1 <0>         0.0875
     54 H18        -4.2299    0.5309   -1.0357 H         1 <0>         0.0827
     55 H19        -3.8076   -2.5681   -3.9050 H         1 <0>         0.0930
     56 H20        -2.9028   -2.6871   -2.3759 H         1 <0>         0.1227
     57 H21        -5.0379   -3.9588   -2.2678 H         1 <0>         0.1377
     58 H22        -5.0246   -2.6116   -1.1049 H         1 <0>         0.1358
     59 H23        -6.2362   -2.5197   -3.7751 H         1 <0>         0.4249
     60 H24        -7.2386   -0.4826   -2.9851 H         1 <0>         0.1402
     61 H25        -6.2616   -0.6580   -1.5080 H         1 <0>         0.1343
     62 H26        -5.1542    0.8692   -3.1092 H         1 <0>         0.1222
     63 H27        -5.1753   -0.4072   -4.3506 H         1 <0>         0.0948
     64 H28        -2.7370   -1.2359   -5.8484 H         1 <0>         0.3988
     65 H29        -0.1570   -2.3785   -5.9710 H         1 <0>         0.0808
     66 H30        -1.2875   -3.6101   -5.3600 H         1 <0>         0.0776
     67 H31        -3.0845   -4.4507   -6.7588 H         1 <0>         0.1249
     68 H32        -3.8670   -4.8786   -9.0526 H         1 <0>         0.1252
     69 H33        -1.1364   -1.9334  -10.5229 H         1 <0>         0.1281
     70 H34        -0.3686   -1.5060   -8.2241 H         1 <0>         0.1312
     71 H35        -3.0047   -2.3027  -12.8348 H         1 <0>         0.0910
     72 H36        -1.4160   -2.5514  -12.0632 H         1 <0>         0.1273
     73 H37        -1.6032   -3.6595  -14.3207 H         1 <0>         0.1443
     74 H38        -1.2651   -4.8075  -13.0029 H         1 <0>         0.1333
     75 H39        -4.5750   -6.1949  -12.8444 H         1 <0>         0.1433
     76 H40        -2.9243   -6.2231  -12.1786 H         1 <0>         0.1328
     77 H41        -4.3925   -5.1033  -10.5823 H         1 <0>         0.1255
     78 H42        -4.9809   -3.9970  -11.8515 H         1 <0>         0.0897
     79 H43        -2.1635   -6.5284  -14.4807 H         1 <0>         0.1228
     80 H44        -3.8369   -6.3864  -15.0707 H         1 <0>         0.1269
     81 H45        -2.5749   -5.3027  -15.7041 H         1 <0>         0.1276
     82 H46        -7.0643   -2.7544   -2.3720 H         1 <0>         0.4349
     83 H47        -3.9335   -4.2233  -14.0734 H         1 <0>         0.4254
@<TRIPOS>BOND
     1    1    2 1
     2    1   38 1
     3    1   39 1
     4    1   40 1
     5    2    7 1
     6    2    3 1
     7    2    8 1
     8    3    4 1
     9    3   41 1
    10    3   42 1
    11    4    5 1
    12    4   43 1
    13    4   44 1
    14    5    6 1
    15    5   45 1
    16    5   46 1
    17    6    7 1
    18    6   47 1
    19    6   48 1
    20    7   49 1
    21    7   50 1
    22    8    9 2
    23    8   10 am
    24   10   15 1
    25   10   11 1
    26   11   12 1
    27   11   51 1
    28   11   52 1
    29   12   13 1
    30   12   14 1
    31   12   21 1
    32   14   20 1
    33   14   15 1
    34   14   16 1
    35   15   53 1
    36   15   54 1
    37   16   17 1
    38   16   55 1
    39   16   56 1
    40   17   18 1
    41   17   57 1
    42   17   58 1
    43   18   19 1
    44   18   59 1
    45   18   82 1
    46   19   20 1
    47   19   60 1
    48   19   61 1
    49   20   62 1
    50   20   63 1
    51   21   22 2
    52   21   23 am
    53   23   24 1
    54   23   64 1
    55   24   25 1
    56   24   65 1
    57   24   66 1
    58   25   30 ar
    59   25   26 ar
    60   26   27 ar
    61   26   67 1
    62   27   28 ar
    63   27   68 1
    64   28   29 ar
    65   28   31 1
    66   29   30 ar
    67   29   69 1
    68   30   70 1
    69   31   36 1
    70   31   32 1
    71   32   33 1
    72   32   71 1
    73   32   72 1
    74   33   34 1
    75   33   73 1
    76   33   74 1
    77   34   35 1
    78   34   37 1
    79   34   83 1
    80   35   36 1
    81   35   75 1
    82   35   76 1
    83   36   77 1
    84   36   78 1
    85   37   79 1
    86   37   80 1
    87   37   81 1
@<TRIPOS>MOLECULE
ZINC47778023
   62    65     0     0     0
SMALL
USER_CHARGES

@<TRIPOS>ATOM
      1 C1         -1.5546    1.1863   -0.0692 C.ar      1 <0>         0.0402
      2 C2         -0.4877    2.0642    0.0724 C.ar      1 <0>        -0.1666
      3 C3          0.7902    1.5595    0.2035 C.ar      1 <0>         0.1464
      4 N1          1.0081    0.2579    0.1959 N.ar      1 <0>        -0.5066
      5 C4          0.0179   -0.6109    0.0627 C.ar      1 <0>         0.4435
      6 C5         -1.2954   -0.1722   -0.0736 C.ar      1 <0>        -0.1995
      7 N2          0.2929   -1.9734    0.0595 N.pl3     1 <0>        -0.5936
      8 C6          1.6802   -2.4572    0.0599 C.3       1 <0>         0.1041
      9 C7          1.8611   -3.4351    1.2251 C.3       1 <0>        -0.1467
     10 C8          0.8095   -4.5423    1.1245 C.3       1 <0>         0.1621
     11 C9         -0.5896   -3.9296    1.2209 C.3       1 <0>        -0.1514
     12 C10        -0.7983   -2.9573    0.0618 C.3       1 <0>         0.1131
     13 N3          1.0004   -5.4976    2.2187 N.am      1 <0>        -0.7377
     14 C11         0.5736   -6.7691    2.0853 C.2       1 <0>         0.7110
     15 O1          0.0302   -7.1232    1.0569 O.2       1 <0>        -0.5617
     16 N4          0.7493   -7.6479    3.0919 N.am      1 <0>        -0.7624
     17 C12         0.2854   -9.0300    2.9470 C.3       1 <0>         0.1154
     18 C13         0.4971   -9.7798    4.2637 C.3       1 <0>         0.1253
     19 C14         0.1129  -11.2260    4.0857 C.2       1 <0>        -0.1082
     20 C15        -0.9929  -11.8126    4.5782 C.2       1 <0>        -0.1197
     21 C16        -0.9529  -13.1668    4.1739 C.2       1 <0>        -0.2116
     22 C17         0.1749  -13.3268    3.4584 C.2       1 <0>         0.0134
     23 O2          0.8135  -12.1466    3.4034 O.3       1 <0>        -0.1781
     24 N5          1.9105   -9.6932    4.6547 N.4       1 <0>        -0.3823
     25 C18         2.7504  -10.2036    3.5645 C.3       1 <0>        -0.0245
     26 C19         4.2264  -10.0409    3.9336 C.3       1 <0>        -0.1401
     27 C20         4.5164  -10.8279    5.2149 C.3       1 <0>        -0.1403
     28 C21         3.5829  -10.3378    6.3256 C.3       1 <0>        -0.1433
     29 C22         2.1307  -10.4896    5.8678 C.3       1 <0>        -0.0072
     30 H1         -2.5644    1.5561   -0.1691 H         1 <0>         0.1762
     31 H2         -0.6563    3.1309    0.0794 H         1 <0>         0.1828
     32 H3          1.6227    2.2386    0.3135 H         1 <0>         0.2077
     33 H4         -2.1015   -0.8828   -0.1817 H         1 <0>         0.1792
     34 H5          1.8898   -2.9666   -0.8807 H         1 <0>         0.1065
     35 H6          2.3610   -1.6145    0.1809 H         1 <0>         0.0840
     36 H7          2.8576   -3.8746    1.1798 H         1 <0>         0.1009
     37 H8          1.7402   -2.9031    2.1687 H         1 <0>         0.0816
     38 H9          0.9151   -5.0579    0.1700 H         1 <0>         0.1023
     39 H10        -1.3375   -4.7211    1.1727 H         1 <0>         0.1003
     40 H11        -0.6875   -3.3929    2.1646 H         1 <0>         0.0770
     41 H12        -1.7524   -2.4446    0.1842 H         1 <0>         0.1065
     42 H13        -0.7954   -3.5085   -0.8785 H         1 <0>         0.1003
     43 H14         1.4339   -5.2151    3.0391 H         1 <0>         0.3997
     44 H15         1.1828   -7.3654    3.9123 H         1 <0>         0.3900
     45 H16        -0.7748   -9.0327    2.6937 H         1 <0>         0.1219
     46 H17         0.8495   -9.5213    2.1543 H         1 <0>         0.1008
     47 H18        -0.1228   -9.3321    5.0405 H         1 <0>         0.1665
     48 H19        -1.7631  -11.3399    5.1696 H         1 <0>         0.1633
     49 H20        -1.6869  -13.9270    4.3970 H         1 <0>         0.1664
     50 H21         0.5082  -14.2472    3.0022 H         1 <0>         0.2207
     51 H22         2.5313  -11.2588    3.4013 H         1 <0>         0.1448
     52 H23         2.5406   -9.6446    2.6526 H         1 <0>         0.1297
     53 H24         4.8483  -10.4221    3.1236 H         1 <0>         0.1137
     54 H25         4.4466   -8.9859    4.0968 H         1 <0>         0.0842
     55 H26         4.3453  -11.8896    5.0370 H         1 <0>         0.0837
     56 H27         5.5527  -10.6695    5.5133 H         1 <0>         0.0967
     57 H28         3.7449  -10.9313    7.2254 H         1 <0>         0.1159
     58 H29         3.7898   -9.2890    6.5384 H         1 <0>         0.0869
     59 H30         1.4634  -10.1417    6.6564 H         1 <0>         0.1322
     60 H31         1.9249  -11.5387    5.6555 H         1 <0>         0.1314
     61 H32         2.1493   -8.7301    4.8379 H         1 <0>         0.4157
     62 H33         1.9160   -0.0703    0.2898 H         1 <0>         0.4370
@<TRIPOS>BOND
     1    1    6 ar
     2    1    2 ar
     3    1   30 1
     4    2    3 ar
     5    2   31 1
     6    3    4 ar
     7    3   32 1
     8    4    5 ar
     9    4   62 1
    10    5    6 ar
    11    5    7 1
    12    6   33 1
    13    7   12 1
    14    7    8 1
    15    8    9 1
    16    8   34 1
    17    8   35 1
    18    9   10 1
    19    9   36 1
    20    9   37 1
    21   10   11 1
    22   10   13 1
    23   10   38 1
    24   11   12 1
    25   11   39 1
    26   11   40 1
    27   12   41 1
    28   12   42 1
    29   13   14 am
    30   13   43 1
    31   14   15 2
    32   14   16 am
    33   16   17 1
    34   16   44 1
    35   17   18 1
    36   17   45 1
    37   17   46 1
    38   18   19 1
    39   18   24 1
    40   18   47 1
    41   19   23 1
    42   19   20 2
    43   20   21 1
    44   20   48 1
    45   21   22 2
    46   21   49 1
    47   22   23 1
    48   22   50 1
    49   24   29 1
    50   24   25 1
    51   24   61 1
    52   25   26 1
    53   25   51 1
    54   25   52 1
    55   26   27 1
    56   26   53 1
    57   26   54 1
    58   27   28 1
    59   27   55 1
    60   27   56 1
    61   28   29 1
    62   28   57 1
    63   28   58 1
    64   29   59 1
    65   29   60 1
@<TRIPOS>MOLECULE
ZINC63717949
   48    51     0     0     0
SMALL
USER_CHARGES

@<TRIPOS>ATOM
      1 C1         -0.0187    1.5258    0.0104 C.3       1 <0>        -0.1539
      2 C2          0.0021   -0.0041    0.0020 C.3       1 <0>         0.0613
      3 O1          0.6709   -0.4649   -1.1737 O.3       1 <0>        -0.3478
      4 C3          0.7759   -1.7988   -1.3348 C.2       1 <0>         0.5123
      5 O2          0.3121   -2.5500   -0.4998 O.2       1 <0>        -0.4997
      6 C4          1.4531   -2.3464   -2.5238 C.ar      1 <0>        -0.1412
      7 C5          1.9969   -1.4949   -3.4903 C.ar      1 <0>        -0.0120
      8 C6          2.6279   -1.9978   -4.5971 C.ar      1 <0>        -0.1598
      9 C7          2.7531   -3.3870   -4.8041 C.ar      1 <0>         0.1988
     10 C8          2.2000   -4.2197   -3.8213 C.ar      1 <0>        -0.1560
     11 C9          1.5701   -3.7306   -2.7053 C.ar      1 <0>         0.0274
     12 S1          2.5270   -5.8762   -4.3810 S.3       1 <0>        -0.0969
     13 C10         3.4078   -5.4525   -5.9372 C.3       1 <0>         0.4060
     14 H1          4.4332   -5.8217   -5.9206 H         1 <0>         0.1485
     15 N1          3.3741   -3.9846   -5.8914 N.pl3     1 <0>        -0.7291
     16 N2          2.6866   -5.9613   -7.1065 N.am      1 <0>        -0.7090
     17 C11         2.7441   -7.2718   -7.4160 C.2       1 <0>         0.5420
     18 O3          3.3928   -8.0299   -6.7265 O.2       1 <0>        -0.4881
     19 C12         2.0022   -7.7953   -8.6188 C.3       1 <0>        -0.2011
     20 S2          2.2748   -9.5825   -8.7667 S.3       1 <0>         0.1207
     21 C13         1.3282  -10.0502  -10.2418 C.3       1 <0>         0.2036
     22 N3          1.7803   -9.2685  -11.3995 N.pl3     1 <0>        -0.4654
     23 C14         0.7614   -8.5814  -11.8288 C.ar      1 <0>         0.3092
     24 C15         0.5926   -7.6315  -12.9371 C.ar      1 <0>        -0.1384
     25 C16        -0.6105   -7.0603  -13.1460 C.ar      1 <0>         0.0366
     26 C17        -1.7302   -7.3350  -12.3408 C.ar      1 <0>         0.0334
     27 C18        -1.6845   -8.1900  -11.2997 C.ar      1 <0>        -0.1358
     28 C19        -0.4237   -8.8717  -10.9762 C.ar      1 <0>         0.3084
     29 N4         -0.0916   -9.7271  -10.0529 N.pl3     1 <0>        -0.4624
     30 H2          1.0039    1.9031    0.0027 H         1 <0>         0.0687
     31 H3         -0.5459    1.8868   -0.8726 H         1 <0>         0.0673
     32 H4         -0.5289    1.8773    0.9072 H         1 <0>         0.0846
     33 H5          0.5293   -0.3651    0.8851 H         1 <0>         0.0722
     34 H6         -1.0205   -0.3814    0.0098 H         1 <0>         0.0709
     35 H7          1.9179   -0.4254   -3.3624 H         1 <0>         0.1525
     36 H8          3.0379   -1.3156   -5.3271 H         1 <0>         0.1381
     37 H9          1.1626   -4.4100   -1.9712 H         1 <0>         0.1500
     38 H10         3.7715   -3.4514   -6.5976 H         1 <0>         0.4202
     39 H11         2.1678   -5.3551   -7.6580 H         1 <0>         0.4069
     40 H12         0.9364   -7.5987   -8.5022 H         1 <0>         0.1339
     41 H13         2.3676   -7.2965   -9.5164 H         1 <0>         0.1334
     42 H14         1.4463  -11.1156  -10.4395 H         1 <0>         0.2712
     43 H15         1.4267   -7.3929  -13.5803 H         1 <0>         0.2063
     44 H16        -0.7188   -6.3642  -13.9647 H         1 <0>         0.2041
     45 H17        -2.6641   -6.8414  -12.5658 H         1 <0>         0.2042
     46 H18        -2.5687   -8.3723  -10.7068 H         1 <0>         0.2067
     47 H19         2.6745   -9.2645  -11.7755 H         1 <0>         0.4985
     48 H20        -0.6753  -10.0856   -9.3661 H         1 <0>         0.4990
@<TRIPOS>BOND
     1    1    2 1
     2    1   30 1
     3    1   31 1
     4    1   32 1
     5    2    3 1
     6    2   33 1
     7    2   34 1
     8    3    4 1
     9    4    5 2
    10    4    6 1
    11    6   11 ar
    12    6    7 ar
    13    7    8 ar
    14    7   35 1
    15    8    9 ar
    16    8   36 1
    17    9   15 1
    18    9   10 ar
    19   10   11 ar
    20   10   12 1
    21   11   37 1
    22   12   13 1
    23   13   14 1
    24   13   15 1
    25   13   16 1
    26   15   38 1
    27   16   17 am
    28   16   39 1
    29   17   18 2
    30   17   19 1
    31   19   20 1
    32   19   40 1
    33   19   41 1
    34   20   21 1
    35   21   29 1
    36   21   22 1
    37   21   42 1
    38   22   23 2
    39   22   47 1
    40   23   28 ar
    41   23   24 ar
    42   24   25 ar
    43   24   43 1
    44   25   26 ar
    45   25   44 1
    46   26   27 ar
    47   26   45 1
    48   27   28 ar
    49   27   46 1
    50   28   29 2
    51   29   48 1
@<TRIPOS>MOLECULE
ZINC67003309
   62    64     0     0     0
SMALL
USER_CHARGES

@<TRIPOS>ATOM
      1 C1         -2.0987   -5.8184   -5.7157 C.3       1 <0>        -0.1334
      2 C2         -1.6317   -5.4163   -4.3405 C.ar      1 <0>        -0.0456
      3 C3         -2.1662   -6.0290   -3.2225 C.ar      1 <0>        -0.1072
      4 C4         -1.7379   -5.6602   -1.9610 C.ar      1 <0>        -0.0904
      5 C5         -0.7747   -4.6791   -1.8175 C.ar      1 <0>        -0.1554
      6 C6         -0.2395   -4.0671   -2.9355 C.ar      1 <0>        -0.1121
      7 C7         -0.6647   -4.4389   -4.1971 C.ar      1 <0>        -0.1026
      8 C8         -0.3085   -4.2764   -0.4421 C.3       1 <0>         0.0680
      9 H1         -1.0521   -4.5766    0.2960 H         1 <0>         0.1489
     10 C9          1.0231   -4.9638   -0.1334 C.3       1 <0>         0.1235
     11 N1          0.8255   -6.4149   -0.0924 N.am      1 <0>        -0.7352
     12 C10         1.8454   -7.2243    0.2557 C.2       1 <0>         0.7174
     13 O1          2.9295   -6.7502    0.5356 O.2       1 <0>        -0.5687
     14 N2          1.6636   -8.5592    0.2934 N.am      1 <0>        -0.7371
     15 C11         2.7722   -9.4390    0.6717 C.3       1 <0>         0.1201
     16 C12         2.2705  -10.8816    0.7620 C.3       1 <0>         0.1258
     17 H2          1.7808  -11.1551   -0.1726 H         1 <0>         0.1634
     18 C13         1.2876  -11.0014    1.8980 C.2       1 <0>        -0.1051
     19 C14        -0.0524  -11.0156    1.7806 C.2       1 <0>        -0.1366
     20 C15        -0.5767  -11.1423    3.0875 C.2       1 <0>        -0.2128
     21 C16         0.4741  -11.1979    3.9253 C.2       1 <0>         0.0151
     22 O2          1.6009  -11.1180    3.1988 O.3       1 <0>        -0.1768
     23 N3          3.4070  -11.7812    1.0009 N.4       1 <0>        -0.3927
     24 C17         2.9572  -13.1963    0.9615 C.3       1 <0>        -0.0010
     25 C18         4.2624  -13.9748    0.6599 C.3       1 <0>        -0.1443
     26 C19         5.0010  -13.0422   -0.3273 C.3       1 <0>        -0.1432
     27 C20         4.4028  -11.6442   -0.0841 C.3       1 <0>        -0.0153
     28 N4         -0.1301   -2.8191   -0.3928 N.4       1 <0>        -0.3812
     29 C21        -1.4189   -2.1593   -0.6415 C.3       1 <0>        -0.0488
     30 C22         0.3705   -2.4316    0.9328 C.3       1 <0>        -0.0569
     31 H3         -1.4784   -6.6347   -6.0858 H         1 <0>         0.0833
     32 H4         -3.1373   -6.1452   -5.6657 H         1 <0>         0.0781
     33 H5         -2.0180   -4.9661   -6.3904 H         1 <0>         0.0782
     34 H6         -2.9188   -6.7955   -3.3346 H         1 <0>         0.1378
     35 H7         -2.1561   -6.1383   -1.0875 H         1 <0>         0.1309
     36 H8          0.5128   -3.3004   -2.8233 H         1 <0>         0.1208
     37 H9         -0.2439   -3.9634   -5.0708 H         1 <0>         0.1381
     38 H10         1.7477   -4.7176   -0.9096 H         1 <0>         0.0917
     39 H11         1.3941   -4.6202    0.8322 H         1 <0>         0.0984
     40 H12        -0.0394   -6.7931   -0.3157 H         1 <0>         0.4039
     41 H13         0.7988   -8.9374    0.0701 H         1 <0>         0.4039
     42 H14         3.5598   -9.3745   -0.0791 H         1 <0>         0.0997
     43 H15         3.1670   -9.1304    1.6397 H         1 <0>         0.0992
     44 H16        -0.6189  -10.9435    0.8640 H         1 <0>         0.1591
     45 H17        -1.6207  -11.1857    3.3607 H         1 <0>         0.1648
     46 H18         0.4209  -11.2945    4.9997 H         1 <0>         0.2201
     47 H19         2.5444  -13.4957    1.9248 H         1 <0>         0.1358
     48 H20         2.2274  -13.3459    0.1658 H         1 <0>         0.1356
     49 H21         4.8469  -14.1147    1.5692 H         1 <0>         0.1013
     50 H22         4.0400  -14.9337    0.1917 H         1 <0>         0.1215
     51 H23         6.0703  -13.0381   -0.1158 H         1 <0>         0.1098
     52 H24         4.8189  -13.3582   -1.3544 H         1 <0>         0.1074
     53 H25         3.9165  -11.2855   -0.9912 H         1 <0>         0.1331
     54 H26         5.1883  -10.9516    0.2181 H         1 <0>         0.1382
     55 H27        -2.1360   -2.4637    0.1208 H         1 <0>         0.1251
     56 H28        -1.2866   -1.0780   -0.6049 H         1 <0>         0.1315
     57 H29        -1.7903   -2.4468   -1.6252 H         1 <0>         0.1257
     58 H30         1.3824   -2.8145    1.0652 H         1 <0>         0.1271
     59 H31         0.3797   -1.3447    1.0143 H         1 <0>         0.1341
     60 H32        -0.2792   -2.8482    1.7026 H         1 <0>         0.1262
     61 H33         3.8330  -11.5753    1.8921 H         1 <0>         0.4337
     62 H34         0.5337   -2.5374   -1.0985 H         1 <0>         0.4259
@<TRIPOS>BOND
     1    1    2 1
     2    1   31 1
     3    1   32 1
     4    1   33 1
     5    2    7 ar
     6    2    3 ar
     7    3    4 ar
     8    3   34 1
     9    4    5 ar
    10    4   35 1
    11    5    6 ar
    12    5    8 1
    13    6    7 ar
    14    6   36 1
    15    7   37 1
    16    8    9 1
    17    8   10 1
    18    8   28 1
    19   10   11 1
    20   10   38 1
    21   10   39 1
    22   11   12 am
    23   11   40 1
    24   12   13 2
    25   12   14 am
    26   14   15 1
    27   14   41 1
    28   15   16 1
    29   15   42 1
    30   15   43 1
    31   16   17 1
    32   16   18 1
    33   16   23 1
    34   18   22 1
    35   18   19 2
    36   19   20 1
    37   19   44 1
    38   20   21 2
    39   20   45 1
    40   21   22 1
    41   21   46 1
    42   23   27 1
    43   23   24 1
    44   23   61 1
    45   24   25 1
    46   24   47 1
    47   24   48 1
    48   25   26 1
    49   25   49 1
    50   25   50 1
    51   26   27 1
    52   26   51 1
    53   26   52 1
    54   27   53 1
    55   27   54 1
    56   28   29 1
    57   28   30 1
    58   28   62 1
    59   29   55 1
    60   29   56 1
    61   29   57 1
    62   30   58 1
    63   30   59 1
    64   30   60 1
@<TRIPOS>MOLECULE
ZINC04200808
   63    64     0     0     0
SMALL
USER_CHARGES
N-(1-carbamoyl-3-methylsulfonyl-propyl)-3-(cyclohexylcarbamoylamino)-4,5-dihydroxy-cyclohexene-1-carboxamide
@<TRIPOS>ATOM
      1 C1         -9.1393    2.4534    4.5674 C.3       1 <0>        -0.6546
      2 S1         -8.0992    1.4681    5.6801 S.o2      1 <0>         2.4205
      3 O1         -8.2803    0.0942    5.3656 O.2       1 <0>        -0.9346
      4 O2         -8.3246    1.9075    7.0126 O.2       1 <0>        -0.9342
      5 C2         -6.4203    1.9520    5.1926 C.3       1 <0>        -0.6192
      6 C3         -5.4027    1.1975    6.0506 C.3       1 <0>        -0.1161
      7 C4         -3.9866    1.6056    5.6393 C.3       1 <0>         0.1356
      8 H1         -3.8885    2.6894    5.7010 H         1 <0>         0.1250
      9 C5         -2.9886    0.9575    6.5639 C.2       1 <0>         0.5056
     10 O3         -2.1480    0.2055    6.1179 O.2       1 <0>        -0.5263
     11 N1         -3.0301    1.2135    7.8865 N.am      1 <0>        -0.8516
     12 N2         -3.7328    1.1697    4.2639 N.am      1 <0>        -0.7078
     13 C6         -2.8153    1.8101    3.5125 C.2       1 <0>         0.5608
     14 O4         -2.1980    2.7497    3.9763 O.2       1 <0>        -0.5279
     15 C7         -2.5604    1.3724    2.1314 C.2       1 <0>        -0.1597
     16 C8         -1.6569    2.0240    1.4316 C.2       1 <0>        -0.0698
     17 C9         -1.2896    1.6810    0.0173 C.3       1 <0>         0.2023
     18 H2         -1.1951    2.5982   -0.5640 H         1 <0>         0.1177
     19 C10        -2.3704    0.7966   -0.6079 C.3       1 <0>         0.1087
     20 H3         -3.2755    1.3824   -0.7682 H         1 <0>         0.0820
     21 C11        -2.6686   -0.3605    0.3537 C.3       1 <0>         0.0763
     22 H4         -1.7374   -0.8528    0.6342 H         1 <0>         0.0674
     23 C12        -3.3459    0.2080    1.6024 C.3       1 <0>        -0.1206
     24 O5         -3.5384   -1.3024   -0.2775 O.3       1 <0>        -0.5609
     25 O6         -1.9036    0.2766   -1.8544 O.3       1 <0>        -0.5499
     26 N3         -0.0111    0.9658    0.0074 N.am      1 <0>        -0.7273
     27 C13         1.1468    1.6555   -0.0000 C.2       1 <0>         0.7080
     28 O7          1.1303    2.8713    0.0067 O.2       1 <0>        -0.5855
     29 N4          2.3230    0.9976   -0.0148 N.am      1 <0>        -0.7409
     30 C14         3.5816    1.7473   -0.0228 C.3       1 <0>         0.1640
     31 C15         3.9417    2.1240   -1.4613 C.3       1 <0>        -0.1293
     32 C16         5.2562    2.9070   -1.4696 C.3       1 <0>        -0.1176
     33 C17         6.3691    2.0415   -0.8752 C.3       1 <0>        -0.1224
     34 C18         6.0090    1.6648    0.5633 C.3       1 <0>        -0.1160
     35 C19         4.6945    0.8818    0.5716 C.3       1 <0>        -0.1267
     36 H5         -8.9106    2.1958    3.5333 H         1 <0>         0.1296
     37 H6        -10.1894    2.2432    4.7706 H         1 <0>         0.1333
     38 H7         -8.9428    3.5131    4.7299 H         1 <0>         0.1303
     39 H8         -6.2945    3.0248    5.3388 H         1 <0>         0.1417
     40 H9         -6.2623    1.7074    4.1422 H         1 <0>         0.1365
     41 H10        -5.5285    0.1247    5.9044 H         1 <0>         0.0969
     42 H11        -5.5607    1.4421    7.1010 H         1 <0>         0.1049
     43 H12        -3.7023    1.8149    8.2433 H         1 <0>         0.4031
     44 H13        -2.3877    0.7963    8.4816 H         1 <0>         0.4063
     45 H14        -4.2251    0.4203    3.8940 H         1 <0>         0.4057
     46 H15        -1.1499    2.8534    1.9021 H         1 <0>         0.1402
     47 H16        -3.4029   -0.5668    2.3670 H         1 <0>         0.0855
     48 H17        -4.3528    0.5377    1.3465 H         1 <0>         0.0955
     49 H18        -3.7776   -2.0535    0.2825 H         1 <0>         0.3878
     50 H19        -2.5405   -0.2940   -2.3058 H         1 <0>         0.3904
     51 H20         0.0021   -0.0041    0.0020 H         1 <0>         0.3988
     52 H21         2.3361    0.0277   -0.0201 H         1 <0>         0.3949
     53 H22         3.4687    2.6533    0.5727 H         1 <0>         0.0887
     54 H23         4.0547    1.2180   -2.0567 H         1 <0>         0.0621
     55 H24         3.1489    2.7406   -1.8847 H         1 <0>         0.0682
     56 H25         5.1432    3.8130   -0.8742 H         1 <0>         0.0647
     57 H26         5.5127    3.1753   -2.4944 H         1 <0>         0.0648
     58 H27         7.3055    2.5993   -0.8812 H         1 <0>         0.0640
     59 H28         6.4821    1.1355   -1.4706 H         1 <0>         0.0623
     60 H29         5.8960    2.5708    1.1587 H         1 <0>         0.0657
     61 H30         6.8018    1.0482    0.9867 H         1 <0>         0.0673
     62 H31         4.4380    0.6135    1.5965 H         1 <0>         0.0682
     63 H32         4.8075   -0.0242   -0.0238 H         1 <0>         0.0675
@<TRIPOS>BOND
     1    1    2 1
     2    1   36 1
     3    1   37 1
     4    1   38 1
     5    2    3 2
     6    2    4 2
     7    2    5 1
     8    5    6 1
     9    5   39 1
    10    5   40 1
    11    6    7 1
    12    6   41 1
    13    6   42 1
    14    7    8 1
    15    7    9 1
    16    7   12 1
    17    9   10 2
    18    9   11 am
    19   11   43 1
    20   11   44 1
    21   12   13 am
    22   12   45 1
    23   13   14 2
    24   13   15 1
    25   15   23 1
    26   15   16 2
    27   16   17 1
    28   16   46 1
    29   17   18 1
    30   17   19 1
    31   17   26 1
    32   19   20 1
    33   19   21 1
    34   19   25 1
    35   21   22 1
    36   21   23 1
    37   21   24 1
    38   23   47 1
    39   23   48 1
    40   24   49 1
    41   25   50 1
    42   26   27 am
    43   26   51 1
    44   27   28 2
    45   27   29 am
    46   29   30 1
    47   29   52 1
    48   30   35 1
    49   30   31 1
    50   30   53 1
    51   31   32 1
    52   31   54 1
    53   31   55 1
    54   32   33 1
    55   32   56 1
    56   32   57 1
    57   33   34 1
    58   33   58 1
    59   33   59 1
    60   34   35 1
    61   34   60 1
    62   34   61 1
    63   35   62 1
    64   35   63 1
@<TRIPOS>MOLECULE
ZINC20921778
   52    54     0     0     0
SMALL
USER_CHARGES
2-[[4-amino-5-[(N'E)-N'-[(1-isopropylpyrazol-4-yl)methylene]hydrazino]-1,2,4-triazol-3-yl]sulfanyl]-N-[5-(2-amino-2-oxo-ethyl)sulfanyl-1,3,4-thiadiazol-2-yl]acetamide
@<TRIPOS>ATOM
      1 C1          0.7597  -17.9723    1.3321 C.3       1 <0>        -0.1676
      2 C2          0.8439  -17.4474   -0.1026 C.3       1 <0>         0.1515
      3 C3         -0.3175  -18.0140   -0.9218 C.3       1 <0>        -0.1683
      4 N1          0.7665  -15.9845   -0.0927 N.pl3     1 <0>        -0.3577
      5 C4         -0.3670  -15.2541   -0.0767 C.2       1 <0>         0.0916
      6 C5         -0.0009  -13.9257   -0.0729 C.2       1 <0>        -0.2068
      7 C6          1.4096  -13.8795   -0.0927 C.2       1 <0>         0.0898
      8 N2          1.8564  -15.1065   -0.0990 N.2       1 <0>        -0.2977
      9 C7         -0.9144  -12.7663   -0.0576 C.2       1 <0>         0.1431
     10 N3         -0.4332  -11.5611   -0.0556 N.2       1 <0>        -0.2090
     11 N4         -1.3002  -10.4607   -0.0410 N.pl3     1 <0>        -0.5642
     12 C8         -0.7858   -9.1724   -0.0389 C.2       1 <0>         0.4930
     13 N5          0.4850   -8.8499   -0.0496 N.2       1 <0>        -0.3142
     14 N6          0.5769   -7.4519   -0.0477 N.2       1 <0>        -0.3046
     15 C9         -0.6410   -6.9657   -0.0281 C.2       1 <0>         0.1703
     16 N7         -1.5149   -8.0159   -0.0254 N.pl3     1 <0>        -0.2634
     17 N8         -2.8779   -7.9261   -0.0108 N.3       1 <0>        -0.7782
     18 S1         -1.0742   -5.2578   -0.0153 S.3       1 <0>         0.0791
     19 C10         0.5240   -4.3997   -0.0258 C.3       1 <0>        -0.1424
     20 C11         0.2944   -2.9103   -0.0160 C.2       1 <0>         0.5363
     21 O1         -0.8361   -2.4710   -0.0033 O.2       1 <0>        -0.4552
     22 N9          1.3453   -2.0665   -0.0215 N.am      1 <0>        -0.6203
     23 C12         1.1332   -0.6900   -0.0125 C.2       1 <0>         0.2866
     24 N10         0.0021   -0.0041    0.0020 N.2       1 <0>        -0.2740
     25 N11        -0.0150    1.2570    0.0090 N.2       1 <0>        -0.2613
     26 C13         1.1000    1.9728    0.0022 C.2       1 <0>        -0.0050
     27 S2          2.3136    0.6564   -0.0165 S.3       1 <0>         0.0552
     28 S3          1.3244    3.7204    0.0086 S.3       1 <0>         0.1340
     29 C14        -0.3654    4.3798    0.0281 C.3       1 <0>        -0.1646
     30 C15        -0.3168    5.8860    0.0350 C.2       1 <0>         0.5407
     31 O2          0.7525    6.4583    0.0275 O.2       1 <0>        -0.5354
     32 N12        -1.4616    6.5971    0.0496 N.am      1 <0>        -0.8684
     33 H1          1.5947  -17.5650    1.9211 H         1 <0>         0.0679
     34 H2          0.8177  -19.0707    1.3246 H         1 <0>         0.0811
     35 H3         -0.1938  -17.6585    1.7819 H         1 <0>         0.0644
     36 H4          1.8078  -17.7180   -0.5583 H         1 <0>         0.1077
     37 H5         -0.2570  -17.6367   -1.9533 H         1 <0>         0.0691
     38 H6         -1.2710  -17.7002   -0.4719 H         1 <0>         0.0682
     39 H7         -0.2594  -19.1124   -0.9292 H         1 <0>         0.0866
     40 H8         -1.3759  -15.6394   -0.0679 H         1 <0>         0.1800
     41 H9          2.0144  -12.9847   -0.0987 H         1 <0>         0.1919
     42 H10        -2.0030  -12.9239   -0.0479 H         1 <0>         0.1199
     43 H11        -2.3888  -10.6183   -0.0312 H         1 <0>         0.4057
     44 H12        -3.3640   -6.9394   -0.0007 H         1 <0>         0.4488
     45 H13        -3.4894   -8.8405   -0.0092 H         1 <0>         0.4369
     46 H14         1.1007   -4.6877    0.8655 H         1 <0>         0.1387
     47 H15         1.0840   -4.6785   -0.9306 H         1 <0>         0.1388
     48 H16         2.3705   -2.4650   -0.0331 H         1 <0>         0.4633
     49 H17        -0.9041    4.0344   -0.8666 H         1 <0>         0.1297
     50 H18        -0.8869    4.0256    0.9296 H         1 <0>         0.1298
     51 H19        -1.4261    7.6965    0.0546 H         1 <0>         0.4322
     52 H20        -2.4314    6.0781    0.0565 H         1 <0>         0.4264
@<TRIPOS>BOND
     1    1    2 1
     2    1   33 1
     3    1   34 1
     4    1   35 1
     5    2    3 1
     6    2    4 1
     7    2   36 1
     8    3   37 1
     9    3   38 1
    10    3   39 1
    11    4    8 1
    12    4    5 1
    13    5    6 2
    14    5   40 1
    15    6    7 1
    16    6    9 1
    17    7    8 2
    18    7   41 1
    19    9   10 2
    20    9   42 1
    21   10   11 1
    22   11   12 1
    23   11   43 1
    24   12   16 1
    25   12   13 2
    26   13   14 1
    27   14   15 2
    28   15   16 1
    29   15   18 1
    30   16   17 1
    31   17   44 1
    32   17   45 1
    33   18   19 1
    34   19   20 1
    35   19   46 1
    36   19   47 1
    37   20   21 2
    38   20   22 am
    39   22   23 1
    40   22   48 1
    41   23   27 1
    42   23   24 2
    43   24   25 1
    44   25   26 2
    45   26   27 1
    46   26   28 1
    47   28   29 1
    48   29   30 1
    49   29   49 1
    50   29   50 1
    51   30   31 2
    52   30   32 am
    53   32   51 1
    54   32   52 1
@<TRIPOS>MOLECULE
ZINC35271359
   64    66     0     0     0
SMALL
USER_CHARGES

@<TRIPOS>ATOM
      1 C1         -0.0173    1.4248    0.0099 C.3       1 <0>         0.0235
      2 O1          0.0021   -0.0041    0.0020 O.3       1 <0>        -0.3057
      3 C2         -1.2011   -0.6379    0.0101 C.ar      1 <0>         0.1111
      4 C3         -2.3743    0.0994    0.0195 C.ar      1 <0>        -0.1766
      5 C4         -3.5965   -0.5465    0.0272 C.ar      1 <0>        -0.0401
      6 C5         -3.6519   -1.9279    0.0261 C.ar      1 <0>        -0.1401
      7 C6         -2.4852   -2.6694    0.0172 C.ar      1 <0>        -0.1050
      8 C7         -1.2569   -2.0283    0.0032 C.ar      1 <0>         0.0761
      9 O2         -0.1083   -2.7563   -0.0116 O.3       1 <0>        -0.4857
     10 C8         -4.8714    0.2570    0.0374 C.3       1 <0>        -0.0405
     11 H1         -4.6308    1.3202    0.0372 H         1 <0>         0.0986
     12 C9         -5.6962   -0.0794   -1.2065 C.3       1 <0>         0.0876
     13 O3         -6.8477    0.7653   -1.2574 O.3       1 <0>        -0.5542
     14 C10        -5.6785   -0.0830    1.2919 C.3       1 <0>         0.1532
     15 H2         -5.9191   -1.1461    1.2921 H         1 <0>         0.0671
     16 C11        -4.8661    0.2484    2.5171 C.ar      1 <0>        -0.0655
     17 C12        -4.8775    1.5341    3.0252 C.ar      1 <0>        -0.0997
     18 C13        -4.1339    1.8432    4.1489 C.ar      1 <0>        -0.1103
     19 C14        -3.3753    0.8632    4.7688 C.ar      1 <0>         0.0754
     20 C15        -3.3642   -0.4310    4.2576 C.ar      1 <0>         0.1029
     21 C16        -4.1156   -0.7352    3.1338 C.ar      1 <0>        -0.1674
     22 O4         -2.6213   -1.3963    4.8624 O.3       1 <0>        -0.3085
     23 C17        -2.6580   -2.7018    4.2826 C.3       1 <0>         0.0276
     24 O5         -2.6429    1.1656    5.8740 O.3       1 <0>        -0.4892
     25 O6         -6.8874    0.6789    1.3015 O.3       1 <0>        -0.3239
     26 C18        -7.9773    0.0314    1.9611 C.3       1 <0>         0.2270
     27 H3         -8.0818   -0.9841    1.5790 H         1 <0>         0.0489
     28 C19        -9.2685    0.8110    1.6989 C.3       1 <0>         0.0716
     29 H4         -9.4857    0.8074    0.6308 H         1 <0>         0.0686
     30 C20       -10.4207    0.1454    2.4578 C.3       1 <0>         0.0777
     31 H5        -10.5714   -0.8653    2.0784 H         1 <0>         0.0744
     32 C21       -10.0695    0.0864    3.9476 C.3       1 <0>         0.0919
     33 H6        -10.8595   -0.4355    4.4876 H         1 <0>         0.0691
     34 C22        -8.7474   -0.6652    4.1229 C.3       1 <0>         0.1136
     35 H7         -8.8620   -1.6899    3.7693 H         1 <0>         0.0736
     36 O7         -7.7255   -0.0120    3.3671 O.3       1 <0>        -0.3583
     37 C23        -8.3593   -0.6766    5.6028 C.3       1 <0>         0.0915
     38 O8         -7.1884   -1.4760    5.7821 O.3       1 <0>        -0.5659
     39 O9         -9.9372    1.4138    4.4600 O.3       1 <0>        -0.5273
     40 O10       -11.6159    0.9073    2.2764 O.3       1 <0>        -0.5486
     41 O11        -9.1131    2.1580    2.1500 O.3       1 <0>        -0.5230
     42 H8          1.0053    1.8021    0.0021 H         1 <0>         0.1034
     43 H9         -0.5445    1.7859   -0.8732 H         1 <0>         0.0567
     44 H10        -0.5275    1.7763    0.9067 H         1 <0>         0.0578
     45 H11        -2.3338    1.1787    0.0211 H         1 <0>         0.1339
     46 H12        -4.6086   -2.4288    0.0325 H         1 <0>         0.1258
     47 H13        -2.5312   -3.7485    0.0167 H         1 <0>         0.1375
     48 H14         0.2323   -2.9716    0.8674 H         1 <0>         0.3872
     49 H15        -5.0899    0.0789   -2.0983 H         1 <0>         0.0513
     50 H16        -6.0120   -1.1218   -1.1621 H         1 <0>         0.0450
     51 H17        -7.4181    0.6071   -2.0220 H         1 <0>         0.3754
     52 H18        -5.4683    2.2988    2.5430 H         1 <0>         0.1280
     53 H19        -4.1440    2.8485    4.5434 H         1 <0>         0.1314
     54 H20        -4.1117   -1.7398    2.7373 H         1 <0>         0.1243
     55 H21        -3.6825   -3.0737    4.2892 H         1 <0>         0.0550
     56 H22        -2.2955   -2.6536    3.2558 H         1 <0>         0.0509
     57 H23        -2.0238   -3.3740    4.8606 H         1 <0>         0.0989
     58 H24        -3.1194    1.0449    6.7068 H         1 <0>         0.3844
     59 H25        -8.1577    0.3423    5.9335 H         1 <0>         0.0677
     60 H26        -9.1775   -1.0939    6.1898 H         1 <0>         0.0595
     61 H27        -6.8844   -1.5283    6.6986 H         1 <0>         0.3806
     62 H28       -10.7383    1.9490    4.3771 H         1 <0>         0.3835
     63 H29       -11.8931    0.9904    1.3537 H         1 <0>         0.3855
     64 H30        -8.3965    2.6387    1.7136 H         1 <0>         0.3808
@<TRIPOS>BOND
     1    1    2 1
     2    1   42 1
     3    1   43 1
     4    1   44 1
     5    2    3 1
     6    3    8 ar
     7    3    4 ar
     8    4    5 ar
     9    4   45 1
    10    5    6 ar
    11    5   10 1
    12    6    7 ar
    13    6   46 1
    14    7    8 ar
    15    7   47 1
    16    8    9 1
    17    9   48 1
    18   10   11 1
    19   10   12 1
    20   10   14 1
    21   12   13 1
    22   12   49 1
    23   12   50 1
    24   13   51 1
    25   14   15 1
    26   14   16 1
    27   14   25 1
    28   16   21 ar
    29   16   17 ar
    30   17   18 ar
    31   17   52 1
    32   18   19 ar
    33   18   53 1
    34   19   20 ar
    35   19   24 1
    36   20   21 ar
    37   20   22 1
    38   21   54 1
    39   22   23 1
    40   23   55 1
    41   23   56 1
    42   23   57 1
    43   24   58 1
    44   25   26 1
    45   26   27 1
    46   26   36 1
    47   26   28 1
    48   28   29 1
    49   28   30 1
    50   28   41 1
    51   30   31 1
    52   30   32 1
    53   30   40 1
    54   32   33 1
    55   32   34 1
    56   32   39 1
    57   34   35 1
    58   34   36 1
    59   34   37 1
    60   37   38 1
    61   37   59 1
    62   37   60 1
    63   38   61 1
    64   39   62 1
    65   40   63 1
    66   41   64 1
@<TRIPOS>MOLECULE
ZINC39945445
   56    59     0     0     0
SMALL
USER_CHARGES

@<TRIPOS>ATOM
      1 C1         -0.0171    1.4081    0.0098 C.2       1 <0>        -0.2509
      2 C2          1.1575    2.0789    0.0022 C.2       1 <0>         0.2061
      3 N1          2.3276    1.3764   -0.0128 N.am      1 <0>        -0.5173
      4 C3          2.3136    0.0309   -0.0203 C.2       1 <0>         0.6456
      5 O1          3.3697   -0.5798   -0.0337 O.2       1 <0>        -0.5165
      6 N2          1.1674   -0.6447   -0.0130 N.2       1 <0>        -0.5396
      7 C4          0.0021   -0.0041    0.0020 C.2       1 <0>         0.2374
      8 S1         -1.5084   -0.9113    0.0110 S.3       1 <0>         0.0946
      9 S2         -0.9095   -2.8718   -0.0050 S.3       1 <0>         0.0945
     10 C5         -0.6269   -3.2451    1.6936 C.2       1 <0>         0.2356
     11 C6         -0.1886   -4.5324    2.0750 C.2       1 <0>        -0.2559
     12 C7          0.0209   -4.7910    3.3860 C.2       1 <0>         0.2069
     13 N3         -0.1959   -3.8047    4.3041 N.am      1 <0>        -0.5193
     14 C8         -0.6139   -2.5879    3.9101 C.2       1 <0>         0.6371
     15 O2         -0.8023   -1.7189    4.7454 O.2       1 <0>        -0.4890
     16 N4         -0.8196   -2.3148    2.6242 N.2       1 <0>        -0.5363
     17 C9          0.0274   -4.0724    5.7270 C.3       1 <0>         0.3034
     18 H1         -0.8954   -3.9375    6.2912 H         1 <0>         0.1224
     19 C10         1.1472   -3.1577    6.2854 C.3       1 <0>         0.0825
     20 H2          1.9380   -3.0169    5.5485 H         1 <0>         0.0852
     21 C11         1.6596   -3.9747    7.4964 C.3       1 <0>         0.0453
     22 H3          1.2041   -3.6154    8.4192 H         1 <0>         0.0980
     23 C12         1.2072   -5.4171    7.1976 C.3       1 <0>         0.0558
     24 H4          0.5109   -5.7538    7.9657 H         1 <0>         0.0975
     25 O3          0.5498   -5.4049    5.9178 O.3       1 <0>        -0.3532
     26 C13         2.4228   -6.3453    7.1546 C.3       1 <0>         0.0805
     27 O4          1.9853   -7.6960    6.9932 O.3       1 <0>        -0.5654
     28 O5          3.0842   -3.9021    7.5820 O.3       1 <0>        -0.5502
     29 O6          0.6157   -1.8997    6.7061 O.3       1 <0>        -0.5153
     30 C14         3.6062    2.0914   -0.0211 C.3       1 <0>         0.3016
     31 H5          3.4384    3.1642   -0.1154 H         1 <0>         0.1259
     32 C15         4.4032    1.7831    1.2714 C.3       1 <0>         0.0771
     33 H6          4.2753    0.7436    1.5733 H         1 <0>         0.1050
     34 C16         5.8561    2.0523    0.7931 C.3       1 <0>         0.0487
     35 H7          6.5686    1.4542    1.3611 H         1 <0>         0.0931
     36 C17         5.8060    1.5945   -0.6805 C.3       1 <0>         0.0611
     37 H8          6.2010    0.5823   -0.7668 H         1 <0>         0.1048
     38 O7          4.4341    1.6199   -1.0962 O.3       1 <0>        -0.3383
     39 C18         6.6290    2.5485   -1.5486 C.3       1 <0>         0.0659
     40 O8          6.6739    2.0542   -2.8886 O.3       1 <0>        -0.5610
     41 O9          6.1732    3.4425    0.8875 O.3       1 <0>        -0.5397
     42 O10         4.0349    2.6720    2.3279 O.3       1 <0>        -0.5369
     43 H9         -0.9546    1.9440    0.0261 H         1 <0>         0.1701
     44 H10         1.1693    3.1588    0.0075 H         1 <0>         0.1849
     45 H11        -0.0236   -5.2983    1.3316 H         1 <0>         0.1679
     46 H12         0.3557   -5.7676    3.7029 H         1 <0>         0.1882
     47 H13         3.0623   -6.0679    6.3167 H         1 <0>         0.0650
     48 H14         2.9830   -6.2535    8.0851 H         1 <0>         0.0633
     49 H15         2.7049   -8.3410    6.9578 H         1 <0>         0.3862
     50 H16         3.4594   -4.3965    8.3235 H         1 <0>         0.3862
     51 H17         1.2781   -1.2925    7.0632 H         1 <0>         0.3839
     52 H18         6.1679    3.5361   -1.5408 H         1 <0>         0.0626
     53 H19         7.6422    2.6174   -1.1526 H         1 <0>         0.0585
     54 H20         7.1805    2.6104   -3.4962 H         1 <0>         0.3828
     55 H21         7.0702    3.6616    0.6002 H         1 <0>         0.3829
     56 H22         4.5086    2.5160    3.1563 H         1 <0>         0.3908
@<TRIPOS>BOND
     1    1    7 1
     2    1    2 2
     3    1   43 1
     4    2    3 1
     5    2   44 1
     6    3    4 am
     7    3   30 1
     8    4    5 2
     9    4    6 1
    10    6    7 2
    11    7    8 1
    12    8    9 1
    13    9   10 1
    14   10   16 2
    15   10   11 1
    16   11   12 2
    17   11   45 1
    18   12   13 1
    19   12   46 1
    20   13   14 am
    21   13   17 1
    22   14   15 2
    23   14   16 1
    24   17   18 1
    25   17   25 1
    26   17   19 1
    27   19   20 1
    28   19   21 1
    29   19   29 1
    30   21   22 1
    31   21   23 1
    32   21   28 1
    33   23   24 1
    34   23   25 1
    35   23   26 1
    36   26   27 1
    37   26   47 1
    38   26   48 1
    39   27   49 1
    40   28   50 1
    41   29   51 1
    42   30   31 1
    43   30   38 1
    44   30   32 1
    45   32   33 1
    46   32   34 1
    47   32   42 1
    48   34   35 1
    49   34   36 1
    50   34   41 1
    51   36   37 1
    52   36   38 1
    53   36   39 1
    54   39   40 1
    55   39   52 1
    56   39   53 1
    57   40   54 1
    58   41   55 1
    59   42   56 1
@<TRIPOS>MOLECULE
ZINC63770259
   54    56     0     0     0
SMALL
USER_CHARGES

@<TRIPOS>ATOM
      1 C1         -0.0187    1.5258    0.0104 C.3       1 <0>        -0.1254
      2 C2          0.0021   -0.0041    0.0020 C.3       1 <0>        -0.0736
      3 H1         -1.0122   -0.4028    0.0220 H         1 <0>         0.1423
      4 C3          0.7613   -0.5252   -1.2049 C.2       1 <0>        -0.2168
      5 C4          1.8045   -1.2182   -0.6878 C.2       1 <0>         0.1360
      6 N1          1.8061   -1.2052    0.6460 N.2       1 <0>        -0.4335
      7 C5          0.8122   -0.5370    1.1681 C.2       1 <0>         0.1308
      8 C6          0.5323   -0.3379    2.6024 C.2       1 <0>         0.6082
      9 O1         -0.4352    0.3127    2.9487 O.2       1 <0>        -0.4741
     10 N2          1.3486   -0.8770    3.5295 N.am      1 <0>        -0.5644
     11 N3          1.0828   -0.6879    4.8920 N.2       1 <0>        -0.2286
     12 C7          1.8698   -1.2076    5.7858 C.2       1 <0>         0.1239
     13 C8          1.5903   -1.0088    7.2185 C.ar      1 <0>        -0.0532
     14 C9          0.4756   -0.2661    7.6185 C.ar      1 <0>        -0.0670
     15 C10         0.2160   -0.0812    8.9598 C.ar      1 <0>        -0.1352
     16 C11         1.0588   -0.6309    9.9153 C.ar      1 <0>         0.1018
     17 C12         2.1721   -1.3720    9.5241 C.ar      1 <0>         0.0764
     18 C13         2.4358   -1.5670    8.1816 C.ar      1 <0>        -0.0975
     19 O2          2.9962   -1.9083   10.4637 O.3       1 <0>        -0.4851
     20 O3          0.7980   -0.4455   11.2363 O.3       1 <0>        -0.4872
     21 C14         2.8427   -1.9222   -1.5230 C.3       1 <0>        -0.1055
     22 C15         0.4370   -0.3230   -2.6195 C.2       1 <0>         0.6050
     23 O4          1.1466   -0.8073   -3.4819 O.2       1 <0>        -0.4861
     24 N4         -0.6470    0.3991   -2.9657 N.am      1 <0>        -0.5774
     25 N5         -0.9572    0.5925   -4.3182 N.2       1 <0>        -0.2234
     26 C16        -2.0018    1.2884   -4.6519 C.2       1 <0>         0.1146
     27 C17        -2.3280    1.4917   -6.0746 C.ar      1 <0>        -0.0508
     28 C18        -1.5178    0.9317   -7.0661 C.ar      1 <0>        -0.0682
     29 C19        -1.8251    1.1228   -8.3965 C.ar      1 <0>        -0.1347
     30 C20        -2.9375    1.8709   -8.7546 C.ar      1 <0>         0.1003
     31 C21        -3.7498    2.4322   -7.7715 C.ar      1 <0>         0.0766
     32 C22        -3.4516    2.2403   -6.4357 C.ar      1 <0>        -0.0994
     33 O5         -4.8390    3.1651   -8.1265 O.3       1 <0>        -0.4852
     34 O6         -3.2353    2.0569  -10.0677 O.3       1 <0>        -0.4872
     35 H2          1.0039    1.9031    0.0027 H         1 <0>         0.0677
     36 H3         -0.5459    1.8868   -0.8726 H         1 <0>         0.0666
     37 H4         -0.5289    1.8773    0.9072 H         1 <0>         0.0894
     38 H5          2.1202   -1.3959    3.2534 H         1 <0>         0.3995
     39 H6          2.7290   -1.7854    5.4784 H         1 <0>         0.1282
     40 H7         -0.1819    0.1631    6.8769 H         1 <0>         0.1444
     41 H8         -0.6453    0.4930    9.2676 H         1 <0>         0.1400
     42 H9          3.2956   -2.1453    7.8772 H         1 <0>         0.1414
     43 H10         2.7468   -2.7999   10.7428 H         1 <0>         0.3894
     44 H11         0.2345   -1.1281   11.6255 H         1 <0>         0.3918
     45 H12         3.6648   -1.2381   -1.7334 H         1 <0>         0.0882
     46 H13         3.2206   -2.7879   -0.9790 H         1 <0>         0.0797
     47 H14         2.3937   -2.2499   -2.4606 H         1 <0>         0.0999
     48 H15        -1.2125    0.7850   -2.2785 H         1 <0>         0.3873
     49 H16        -2.6314    1.7180   -3.8868 H         1 <0>         0.1252
     50 H17        -0.6509    0.3496   -6.7903 H         1 <0>         0.1440
     51 H18        -1.1982    0.6896   -9.1619 H         1 <0>         0.1397
     52 H19        -4.0828    2.6715   -5.6727 H         1 <0>         0.1407
     53 H20        -5.6491    2.6455   -8.2205 H         1 <0>         0.3891
     54 H21        -3.8163    1.3789  -10.4391 H         1 <0>         0.3915
@<TRIPOS>BOND
     1    1    2 1
     2    1   35 1
     3    1   36 1
     4    1   37 1
     5    2    3 1
     6    2    7 1
     7    2    4 1
     8    4    5 2
     9    4   22 1
    10    5    6 1
    11    5   21 1
    12    6    7 2
    13    7    8 1
    14    8    9 2
    15    8   10 am
    16   10   11 1
    17   10   38 1
    18   11   12 2
    19   12   13 1
    20   12   39 1
    21   13   18 ar
    22   13   14 ar
    23   14   15 ar
    24   14   40 1
    25   15   16 ar
    26   15   41 1
    27   16   17 ar
    28   16   20 1
    29   17   18 ar
    30   17   19 1
    31   18   42 1
    32   19   43 1
    33   20   44 1
    34   21   45 1
    35   21   46 1
    36   21   47 1
    37   22   23 2
    38   22   24 am
    39   24   25 1
    40   24   48 1
    41   25   26 2
    42   26   27 1
    43   26   49 1
    44   27   32 ar
    45   27   28 ar
    46   28   29 ar
    47   28   50 1
    48   29   30 ar
    49   29   51 1
    50   30   31 ar
    51   30   34 1
    52   31   32 ar
    53   31   33 1
    54   32   52 1
    55   33   53 1
    56   34   54 1
@<TRIPOS>MOLECULE
ZINC20428632
   45    46     0     0     0
SMALL
USER_CHARGES
3-oxobutyl (6R)-4-amino-6-(3-bromophenyl)-5-cyano-2-methyl-cyclohexa-1,4-diene-1-carboxylate
@<TRIPOS>ATOM
      1 C1         -2.4282    1.2426    0.2472 C.3       1 <0>        -0.1399
      2 C2         -1.1808    2.0796    0.1272 C.2       1 <0>        -0.0513
      3 C3         -0.0101    1.4804    0.2201 C.2       1 <0>        -0.1229
      4 C4          1.2931    2.2120    0.1102 C.3       1 <0>         0.0461
      5 H1          1.9773    1.6057   -0.5016 H         1 <0>         0.1333
      6 C5          1.1151    3.5413   -0.5597 C.2       1 <0>         0.0639
      7 C6         -0.0720    4.1497   -0.6488 C.2       1 <0>        -0.0084
      8 C7         -1.3283    3.5556   -0.0866 C.3       1 <0>        -0.0523
      9 N1         -0.1431    5.3649   -1.2788 N.4       1 <0>        -0.6216
     10 C8          2.2619    4.1846   -1.1270 C.1       1 <0>         0.1768
     11 N2          3.1716    4.6949   -1.5770 N.1       1 <0>        -0.3061
     12 C9          1.8560    2.4280    1.4914 C.ar      1 <0>        -0.0960
     13 C10         1.1405    3.1571    2.4232 C.ar      1 <0>        -0.0894
     14 C11         1.6538    3.3507    3.6919 C.ar      1 <0>        -0.1047
     15 C12         2.8879    2.8250    4.0261 C.ar      1 <0>        -0.0731
     16 C13         3.6065    2.1004    3.0926 C.ar      1 <0>        -0.0853
     17 C14         3.0898    1.9021    1.8246 C.ar      1 <0>        -0.0739
     18 Br1         5.2949    1.3816    3.5490 Br        1 <0>        -0.0273
     19 C15         0.0181    0.0270    0.4352 C.2       1 <0>         0.5087
     20 O1          0.3057   -0.7175   -0.4813 O.2       1 <0>        -0.4804
     21 O2         -0.2750   -0.4805    1.6492 O.3       1 <0>        -0.3456
     22 C16        -0.2273   -1.9250    1.7889 C.3       1 <0>         0.0698
     23 C17        -0.5867   -2.3106    3.2252 C.3       1 <0>        -0.1751
     24 C18        -0.5371   -3.8098    3.3702 C.2       1 <0>         0.3582
     25 O3         -0.2445   -4.4987    2.4225 O.2       1 <0>        -0.4520
     26 C19        -0.8528   -4.4492    4.6978 C.3       1 <0>        -0.2072
     27 H2         -2.1498    0.1894    0.3999 H         1 <0>         0.0738
     28 H3         -3.0218    1.3350   -0.6743 H         1 <0>         0.0900
     29 H4         -3.0235    1.5924    1.1035 H         1 <0>         0.0954
     30 H5         -2.1515    3.7435   -0.7916 H         1 <0>         0.1282
     31 H6         -1.5489    4.0450    0.8735 H         1 <0>         0.1384
     32 H7         -1.1825    5.7247   -1.2652 H         1 <0>         0.4746
     33 H8          0.1944    5.2582   -2.3203 H         1 <0>         0.4660
     34 H9          0.1785    3.5719    2.1609 H         1 <0>         0.1264
     35 H10         1.0926    3.9165    4.4208 H         1 <0>         0.1410
     36 H11         3.2910    2.9804    5.0159 H         1 <0>         0.1417
     37 H12         3.6504    1.3361    1.0954 H         1 <0>         0.1364
     38 H13        -0.9466   -2.3844    1.0950 H         1 <0>         0.0832
     39 H14         0.7865   -2.2826    1.5560 H         1 <0>         0.0829
     40 H15         0.1326   -1.8511    3.9191 H         1 <0>         0.1137
     41 H16        -1.6005   -1.9530    3.4581 H         1 <0>         0.1140
     42 H17        -0.7648   -5.5420    4.6086 H         1 <0>         0.0890
     43 H18        -1.8786   -4.1871    4.9963 H         1 <0>         0.0977
     44 H19        -0.1455   -4.0852    5.4575 H         1 <0>         0.0976
     45 H20         0.5017    6.0870   -0.7565 H         1 <0>         0.4656
@<TRIPOS>BOND
     1    1    2 1
     2    1   27 1
     3    1   28 1
     4    1   29 1
     5    2    8 1
     6    2    3 2
     7    3    4 1
     8    3   19 1
     9    4    5 1
    10    4    6 1
    11    4   12 1
    12    6    7 2
    13    6   10 1
    14    7    8 1
    15    7    9 1
    16    8   30 1
    17    8   31 1
    18    9   32 1
    19    9   33 1
    20    9   45 1
    21   10   11 3
    22   12   17 ar
    23   12   13 ar
    24   13   14 ar
    25   13   34 1
    26   14   15 ar
    27   14   35 1
    28   15   16 ar
    29   15   36 1
    30   16   17 ar
    31   16   18 1
    32   17   37 1
    33   19   20 2
    34   19   21 1
    35   21   22 1
    36   22   23 1
    37   22   38 1
    38   22   39 1
    39   23   24 1
    40   23   40 1
    41   23   41 1
    42   24   25 2
    43   24   26 1
    44   26   42 1
    45   26   43 1
    46   26   44 1
@<TRIPOS>MOLECULE
ZINC39608128
   67    69     0     0     0
SMALL
USER_CHARGES

@<TRIPOS>ATOM
      1 C1          2.1641   -2.0663    1.5788 C.3       1 <0>        -0.1500
      2 C2          1.8027   -2.3705    0.1235 C.3       1 <0>        -0.1068
      3 C3          1.6005   -1.0582   -0.6367 C.3       1 <0>        -0.0572
      4 H1          0.8652   -0.4456   -0.1150 H         1 <0>         0.0999
      5 C4          1.1090   -1.3555   -2.0300 C.ar      1 <0>        -0.0875
      6 C5          1.8756   -2.1267   -2.8835 C.ar      1 <0>        -0.1059
      7 C6          1.4247   -2.3993   -4.1615 C.ar      1 <0>        -0.1160
      8 C7          0.2071   -1.9011   -4.5858 C.ar      1 <0>        -0.1137
      9 C8         -0.5599   -1.1307   -3.7320 C.ar      1 <0>        -0.1175
     10 C9         -0.1110   -0.8616   -2.4525 C.ar      1 <0>        -0.1117
     11 C10         2.9095   -0.3154   -0.7136 C.2       1 <0>         0.5611
     12 O1          3.9531   -0.9304   -0.7738 O.2       1 <0>        -0.5279
     13 N1          2.9204    1.0323   -0.7155 N.am      1 <0>        -0.6161
     14 C11         1.7572    1.9500   -0.7451 C.3       1 <0>         0.1160
     15 C12         2.1442    3.1015    0.2098 C.3       1 <0>        -0.1165
     16 H2          1.7825    4.0539   -0.1780 H         1 <0>         0.1154
     17 C13         3.6816    3.0853    0.2414 C.3       1 <0>        -0.0709
     18 C14         4.0987    1.9315   -0.6819 C.3       1 <0>         0.1065
     19 C15         4.1784    2.8236    1.6600 C.3       1 <0>        -0.1478
     20 C16         5.7089    2.8689    1.6763 C.3       1 <0>        -0.0098
     21 N2          6.1662    4.1838    1.2109 N.4       1 <0>        -0.5045
     22 C17         5.7635    4.3889   -0.1857 C.3       1 <0>        -0.0101
     23 C18         4.2352    4.4076   -0.2808 C.3       1 <0>        -0.1338
     24 C19         1.5861    2.8510    1.5871 C.2       1 <0>         0.5166
     25 O2          1.4303    1.7145    1.9808 O.2       1 <0>        -0.5155
     26 N3          1.2601    3.8899    2.3813 N.am      1 <0>        -0.7240
     27 C20         0.8209    3.6498    3.7581 C.3       1 <0>         0.1464
     28 H3          1.3375    2.7769    4.1573 H         1 <0>         0.0898
     29 C21        -0.6887    3.4014    3.7759 C.3       1 <0>        -0.1699
     30 C22         1.1467    4.8727    4.6180 C.3       1 <0>        -0.1041
     31 C23         0.6880    4.6219    6.0559 C.3       1 <0>        -0.1521
     32 C24         2.6563    5.1211    4.6002 C.3       1 <0>        -0.1462
     33 H4          3.1321   -1.5665    1.6159 H         1 <0>         0.0497
     34 H5          1.4036   -1.4181    2.0142 H         1 <0>         0.0581
     35 H6          2.2142   -2.9976    2.1430 H         1 <0>         0.0596
     36 H7          2.6092   -2.9385   -0.3401 H         1 <0>         0.0776
     37 H8          0.8826   -2.9541    0.0920 H         1 <0>         0.0760
     38 H9          2.8269   -2.5159   -2.5520 H         1 <0>         0.1262
     39 H10         2.0240   -3.0012   -4.8286 H         1 <0>         0.1251
     40 H11        -0.1448   -2.1136   -5.5845 H         1 <0>         0.1252
     41 H12        -1.5111   -0.7412   -4.0636 H         1 <0>         0.1256
     42 H13        -0.7120   -0.2628   -1.7842 H         1 <0>         0.1209
     43 H14         1.5987    2.3302   -1.7543 H         1 <0>         0.0890
     44 H15         0.8629    1.4417   -0.3847 H         1 <0>         0.0968
     45 H16         4.9634    1.4103   -0.2713 H         1 <0>         0.0865
     46 H17         4.3190    2.3073   -1.6811 H         1 <0>         0.0824
     47 H18         3.7845    3.5877    2.3302 H         1 <0>         0.0964
     48 H19         3.8398    1.8410    1.9886 H         1 <0>         0.1237
     49 H20         6.0664    2.6986    2.6918 H         1 <0>         0.1380
     50 H21         6.1021    2.0939    1.0183 H         1 <0>         0.1343
     51 H22         5.7567    4.9041    1.7868 H         1 <0>         0.4269
     52 H23         6.1611    5.3389   -0.5425 H         1 <0>         0.1401
     53 H24         6.1556    3.5779   -0.7994 H         1 <0>         0.1331
     54 H25         3.9370    4.5416   -1.3206 H         1 <0>         0.1217
     55 H26         3.8433    5.2286    0.3195 H         1 <0>         0.0971
     56 H27         1.3162    4.7966    2.0413 H         1 <0>         0.3984
     57 H28        -0.9191    2.5210    3.1760 H         1 <0>         0.0624
     58 H29        -1.0180    3.2381    4.8021 H         1 <0>         0.0730
     59 H30        -1.2044    4.2680    3.3624 H         1 <0>         0.0587
     60 H31         0.6301    5.7455    4.2188 H         1 <0>         0.0777
     61 H32         1.2046    3.7490    6.4551 H         1 <0>         0.0587
     62 H33         0.9201    5.4931    6.6685 H         1 <0>         0.0630
     63 H34        -0.3874    4.4449    6.0686 H         1 <0>         0.0654
     64 H35         2.9830    5.2998    3.5758 H         1 <0>         0.0451
     65 H36         2.8884    5.9923    5.2128 H         1 <0>         0.0620
     66 H37         3.1729    4.2482    4.9993 H         1 <0>         0.0553
     67 H38         7.1717    4.2327    1.2802 H         1 <0>         0.4342
@<TRIPOS>BOND
     1    1    2 1
     2    1   33 1
     3    1   34 1
     4    1   35 1
     5    2    3 1
     6    2   36 1
     7    2   37 1
     8    3    4 1
     9    3    5 1
    10    3   11 1
    11    5   10 ar
    12    5    6 ar
    13    6    7 ar
    14    6   38 1
    15    7    8 ar
    16    7   39 1
    17    8    9 ar
    18    8   40 1
    19    9   10 ar
    20    9   41 1
    21   10   42 1
    22   11   12 2
    23   11   13 am
    24   13   18 1
    25   13   14 1
    26   14   15 1
    27   14   43 1
    28   14   44 1
    29   15   16 1
    30   15   17 1
    31   15   24 1
    32   17   23 1
    33   17   18 1
    34   17   19 1
    35   18   45 1
    36   18   46 1
    37   19   20 1
    38   19   47 1
    39   19   48 1
    40   20   21 1
    41   20   49 1
    42   20   50 1
    43   21   22 1
    44   21   51 1
    45   21   67 1
    46   22   23 1
    47   22   52 1
    48   22   53 1
    49   23   54 1
    50   23   55 1
    51   24   25 2
    52   24   26 am
    53   26   27 1
    54   26   56 1
    55   27   28 1
    56   27   29 1
    57   27   30 1
    58   29   57 1
    59   29   58 1
    60   29   59 1
    61   30   31 1
    62   30   32 1
    63   30   60 1
    64   31   61 1
    65   31   62 1
    66   31   63 1
    67   32   64 1
    68   32   65 1
    69   32   66 1
@<TRIPOS>MOLECULE
ZINC36032791
   63    65     0     0     0
SMALL
USER_CHARGES

@<TRIPOS>ATOM
      1 C1         -1.5891   -3.8105    1.1690 C.3       1 <0>        -0.1559
      2 C2         -0.6774   -2.6970    0.6496 C.3       1 <0>        -0.1210
      3 C3          0.0350   -3.1712   -0.6187 C.3       1 <0>        -0.1152
      4 H1         -0.7039   -3.5035   -1.3478 H         1 <0>         0.0880
      5 C4          0.9700   -4.3324   -0.2746 C.3       1 <0>        -0.1738
      6 C5          0.8497   -2.0177   -1.2075 C.3       1 <0>         0.1000
      7 N1          1.7188   -2.5269   -2.2713 N.am      1 <0>        -0.6103
      8 C6          1.3150   -2.8573   -3.5156 C.2       1 <0>         0.5162
      9 O1          0.1806   -2.7773   -3.9371 O.2       1 <0>        -0.4387
     10 C7          2.5163   -3.3436   -4.2969 C.3       1 <0>        -0.0026
     11 H2          2.8719   -2.5639   -4.9706 H         1 <0>         0.1783
     12 N2          3.5409   -3.6434   -3.2676 N.4       1 <0>        -0.5142
     13 C8          3.1620   -2.7501   -2.1502 C.3       1 <0>         0.2878
     14 C9          3.4825   -3.4273   -0.8190 C.3       1 <0>        -0.1809
     15 C10         3.0488   -2.5146    0.3330 C.3       1 <0>         0.0674
     16 N3          3.6710   -1.1961    0.1511 N.pl3     1 <0>        -0.5875
     17 C11         3.4828   -0.4954   -1.1265 C.3       1 <0>         0.0969
     18 C12         3.9132   -1.4250   -2.2662 C.3       1 <0>        -0.1578
     19 C13         4.4013   -0.6399    1.1379 C.2       1 <0>         0.5637
     20 S1          4.7215   -1.5241    2.5685 S.2       1 <0>        -0.6003
     21 N4          4.8795    0.6125    0.9984 N.pl3     1 <0>        -0.6501
     22 C14         5.5792    1.2576    2.1122 C.3       1 <0>         0.0622
     23 C15         5.2352    2.7181    2.4115 C.3       1 <0>        -0.1796
     24 C16         6.5794    2.3643    1.7720 C.3       1 <0>        -0.1790
     25 C17         2.1637   -4.6068   -5.0848 C.3       1 <0>        -0.1303
     26 C18         3.3638   -5.0297   -5.9344 C.3       1 <0>        -0.1016
     27 C19         3.0561   -6.3596   -6.6255 C.3       1 <0>        -0.1549
     28 C20         3.6435   -3.9588   -6.9907 C.3       1 <0>        -0.1628
     29 H3         -2.3289   -4.0590    0.4080 H         1 <0>         0.0571
     30 H4         -0.9913   -4.6931    1.3965 H         1 <0>         0.0595
     31 H5         -2.0967   -3.4727    2.0726 H         1 <0>         0.0633
     32 H6         -1.2752   -1.8144    0.4221 H         1 <0>         0.0703
     33 H7          0.0624   -2.4486    1.4106 H         1 <0>         0.0687
     34 H8          1.7089   -4.0001    0.4546 H         1 <0>         0.0769
     35 H9          0.3896   -5.1541    0.1449 H         1 <0>         0.0764
     36 H10         1.4775   -4.6702   -1.1781 H         1 <0>         0.0461
     37 H11         0.1735   -1.2680   -1.6184 H         1 <0>         0.1007
     38 H12         1.4596   -1.5669   -0.4246 H         1 <0>         0.1215
     39 H13         3.4919   -4.6115   -2.9874 H         1 <0>         0.4391
     40 H14         2.9463   -4.3741   -0.7544 H         1 <0>         0.1340
     41 H15         4.5548   -3.6112   -0.7534 H         1 <0>         0.1139
     42 H16         1.9638   -2.4105    0.3282 H         1 <0>         0.1285
     43 H17         3.3727   -2.9439    1.2811 H         1 <0>         0.1537
     44 H18         2.4322   -0.2313   -1.2472 H         1 <0>         0.0993
     45 H19         4.0929    0.4077   -1.1414 H         1 <0>         0.1031
     46 H20         4.9857   -1.6080   -2.2008 H         1 <0>         0.1133
     47 H21         3.6813   -0.9581   -3.2235 H         1 <0>         0.1112
     48 H22         4.7604    1.0866    0.1607 H         1 <0>         0.3955
     49 H23         5.8122    0.6114    2.9585 H         1 <0>         0.1712
     50 H24         4.4883    3.1989    1.7798 H         1 <0>         0.0978
     51 H25         5.2417    3.0330    3.4550 H         1 <0>         0.1149
     52 H26         7.4702    2.4465    2.3947 H         1 <0>         0.1153
     53 H27         6.7168    2.6124    0.7195 H         1 <0>         0.0971
     54 H28         1.9090   -5.4083   -4.3913 H         1 <0>         0.0953
     55 H29         1.3121   -4.4041   -5.7343 H         1 <0>         0.1269
     56 H30         4.2386   -5.1464   -5.2948 H         1 <0>         0.0666
     57 H31         2.1812   -6.2429   -7.2651 H         1 <0>         0.0672
     58 H32         3.9111   -6.6608   -7.2307 H         1 <0>         0.0699
     59 H33         2.8568   -7.1225   -5.8729 H         1 <0>         0.0621
     60 H34         2.7686   -3.8420   -7.6303 H         1 <0>         0.0713
     61 H35         3.8626   -3.0113   -6.4984 H         1 <0>         0.0496
     62 H36         4.4984   -4.2600   -7.5960 H         1 <0>         0.0730
     63 H37         4.4636   -3.4149   -3.6061 H         1 <0>         0.4462
@<TRIPOS>BOND
     1    1    2 1
     2    1   29 1
     3    1   30 1
     4    1   31 1
     5    2    3 1
     6    2   32 1
     7    2   33 1
     8    3    4 1
     9    3    5 1
    10    3    6 1
    11    5   34 1
    12    5   35 1
    13    5   36 1
    14    6    7 1
    15    6   37 1
    16    6   38 1
    17    7   13 1
    18    7    8 am
    19    8    9 2
    20    8   10 1
    21   10   11 1
    22   10   12 1
    23   10   25 1
    24   12   13 1
    25   12   39 1
    26   12   63 1
    27   13   18 1
    28   13   14 1
    29   14   15 1
    30   14   40 1
    31   14   41 1
    32   15   16 1
    33   15   42 1
    34   15   43 1
    35   16   17 1
    36   16   19 1
    37   17   18 1
    38   17   44 1
    39   17   45 1
    40   18   46 1
    41   18   47 1
    42   19   20 2
    43   19   21 1
    44   21   22 1
    45   21   48 1
    46   22   24 1
    47   22   23 1
    48   22   49 1
    49   23   24 1
    50   23   50 1
    51   23   51 1
    52   24   52 1
    53   24   53 1
    54   25   26 1
    55   25   54 1
    56   25   55 1
    57   26   27 1
    58   26   28 1
    59   26   56 1
    60   27   57 1
    61   27   58 1
    62   27   59 1
    63   28   60 1
    64   28   61 1
    65   28   62 1
@<TRIPOS>MOLECULE
ZINC58405836
   61    63     0     0     0
SMALL
USER_CHARGES

@<TRIPOS>ATOM
      1 C1         -0.0187    1.5258    0.0104 C.3       1 <0>        -0.1695
      2 C2          0.0021   -0.0041    0.0020 C.3       1 <0>        -0.1307
      3 H1          0.5123   -0.3556   -0.8948 H         1 <0>         0.1015
      4 C3         -1.4333   -0.5336    0.0129 C.3       1 <0>         0.1475
      5 N1         -2.1054   -0.1483   -1.2305 N.am      1 <0>        -0.7500
      6 C4         -3.3867   -0.5081   -1.4434 C.2       1 <0>         0.7057
      7 O1         -3.9848   -1.1525   -0.6036 O.2       1 <0>        -0.5805
      8 N2         -4.0050   -0.1536   -2.5873 N.am      1 <0>        -0.7404
      9 C5         -5.3977   -0.5447   -2.8188 C.3       1 <0>         0.1475
     10 C6         -5.8550   -0.0204   -4.1815 C.3       1 <0>        -0.1130
     11 H2         -5.6890    1.0543   -4.2551 H         1 <0>         0.0949
     12 C7         -5.1272   -0.7682   -5.3297 C.3       1 <0>        -0.1281
     13 C8         -6.1464   -0.6272   -6.4877 C.3       1 <0>         0.1087
     14 N3         -7.4675   -0.7452   -5.8442 N.pl3     1 <0>        -0.6320
     15 C9         -7.3398   -0.3617   -4.4276 C.3       1 <0>         0.1216
     16 C10        -8.6479   -1.1500   -6.4749 C.ar      1 <0>         0.2547
     17 C11        -9.8340   -1.2141   -5.7551 C.ar      1 <0>        -0.1766
     18 C12       -10.9997   -1.6141   -6.3791 C.ar      1 <0>        -0.0725
     19 C13       -10.9872   -1.9518   -7.7214 C.ar      1 <0>         0.0082
     20 C14        -9.8047   -1.8893   -8.4428 C.ar      1 <0>         0.1204
     21 C15        -8.6368   -1.4828   -7.8227 C.ar      1 <0>        -0.2082
     22 F1         -9.7943   -2.2198   -9.7527 F         1 <0>        -0.1254
     23 F2        -12.1285   -2.3432   -8.3293 F         1 <0>        -0.1322
     24 C16         0.7421   -0.5109    1.2415 C.3       1 <0>        -0.0044
     25 N4          2.1515   -0.1027    1.1714 N.4       1 <0>        -0.3826
     26 C17         2.7941   -0.7624    0.0284 C.3       1 <0>        -0.0134
     27 C18         4.2403   -0.2785   -0.0976 C.3       1 <0>        -0.1457
     28 C19         5.0014   -0.6220    1.1861 C.3       1 <0>        -0.1399
     29 C20         4.2801    0.0097    2.3802 C.3       1 <0>        -0.1466
     30 C21         2.8324   -0.4848    2.4144 C.3       1 <0>        -0.0072
     31 H3          1.0039    1.9031    0.0027 H         1 <0>         0.0554
     32 H4         -0.5459    1.8868   -0.8726 H         1 <0>         0.0829
     33 H5         -0.5289    1.8773    0.9072 H         1 <0>         0.0784
     34 H6         -1.4190   -1.6203    0.0965 H         1 <0>         0.0773
     35 H7         -1.9701   -0.1109    0.8621 H         1 <0>         0.0793
     36 H8         -1.6283    0.3658   -1.9006 H         1 <0>         0.3972
     37 H9         -3.5279    0.3605   -3.2574 H         1 <0>         0.3976
     38 H10        -5.4774   -1.6317   -2.8023 H         1 <0>         0.0745
     39 H11        -6.0285   -0.1223   -2.0366 H         1 <0>         0.0748
     40 H12        -4.1843   -0.2807   -5.5775 H         1 <0>         0.0841
     41 H13        -4.9682   -1.8160   -5.0746 H         1 <0>         0.0814
     42 H14        -6.0436    0.3462   -6.9672 H         1 <0>         0.0676
     43 H15        -6.0063   -1.4263   -7.2158 H         1 <0>         0.0765
     44 H16        -7.6394   -1.1937   -3.7904 H         1 <0>         0.0715
     45 H17        -7.9600    0.5100   -4.2188 H         1 <0>         0.0723
     46 H18        -9.8449   -0.9515   -4.7076 H         1 <0>         0.1369
     47 H19       -11.9217   -1.6638   -5.8189 H         1 <0>         0.1478
     48 H20        -7.7164   -1.4294   -8.3853 H         1 <0>         0.1418
     49 H21         0.2852   -0.0874    2.1360 H         1 <0>         0.1371
     50 H22         0.6803   -1.5984    1.2822 H         1 <0>         0.1356
     51 H23         2.7845   -1.8418    0.1799 H         1 <0>         0.1303
     52 H24         2.2494   -0.5196   -0.8839 H         1 <0>         0.1296
     53 H25         4.7162   -0.7708   -0.9457 H         1 <0>         0.1123
     54 H26         4.2511    0.8008   -0.2494 H         1 <0>         0.0868
     55 H27         5.0350   -1.7043    1.3115 H         1 <0>         0.0825
     56 H28         6.0164   -0.2295    1.1242 H         1 <0>         0.0947
     57 H29         4.7844   -0.2765    3.3031 H         1 <0>         0.1134
     58 H30         4.2917    1.0950    2.2798 H         1 <0>         0.0871
     59 H31         2.3159   -0.0371    3.2635 H         1 <0>         0.1311
     60 H32         2.8219   -1.5701    2.5150 H         1 <0>         0.1299
     61 H33         2.2053    0.8979    1.0536 H         1 <0>         0.4204
@<TRIPOS>BOND
     1    1    2 1
     2    1   31 1
     3    1   32 1
     4    1   33 1
     5    2    3 1
     6    2    4 1
     7    2   24 1
     8    4    5 1
     9    4   34 1
    10    4   35 1
    11    5    6 am
    12    5   36 1
    13    6    7 2
    14    6    8 am
    15    8    9 1
    16    8   37 1
    17    9   10 1
    18    9   38 1
    19    9   39 1
    20   10   11 1
    21   10   15 1
    22   10   12 1
    23   12   13 1
    24   12   40 1
    25   12   41 1
    26   13   14 1
    27   13   42 1
    28   13   43 1
    29   14   15 1
    30   14   16 1
    31   15   44 1
    32   15   45 1
    33   16   21 ar
    34   16   17 ar
    35   17   18 ar
    36   17   46 1
    37   18   19 ar
    38   18   47 1
    39   19   20 ar
    40   19   23 1
    41   20   21 ar
    42   20   22 1
    43   21   48 1
    44   24   25 1
    45   24   49 1
    46   24   50 1
    47   25   30 1
    48   25   26 1
    49   25   61 1
    50   26   27 1
    51   26   51 1
    52   26   52 1
    53   27   28 1
    54   27   53 1
    55   27   54 1
    56   28   29 1
    57   28   55 1
    58   28   56 1
    59   29   30 1
    60   29   57 1
    61   29   58 1
    62   30   59 1
    63   30   60 1
@<TRIPOS>MOLECULE
ZINC67255028
   51    53     0     0     0
SMALL
USER_CHARGES

@<TRIPOS>ATOM
      1 C1         -0.0167    1.3792    0.0096 C.ar      1 <0>        -0.1028
      2 C2          1.1684    2.0912    0.0021 C.ar      1 <0>        -0.0810
      3 C3          2.3808    1.4251   -0.0122 C.ar      1 <0>        -0.1675
      4 C4          2.4031    0.0407   -0.0194 C.ar      1 <0>         0.0862
      5 C5          1.2138   -0.6739   -0.0126 C.ar      1 <0>         0.0759
      6 C6          0.0021   -0.0041    0.0020 C.ar      1 <0>        -0.0810
      7 O1          1.2468   -2.0382   -0.0187 O.3       1 <0>        -0.3127
      8 C7          1.7274   -2.6462   -1.2194 C.3       1 <0>         0.0581
      9 C8          3.2462   -2.7207   -1.2157 C.3       1 <0>        -0.1917
     10 C9          3.8933   -1.3447   -1.2318 C.3       1 <0>         0.0506
     11 O2          3.5922   -0.6290   -0.0321 O.3       1 <0>        -0.3218
     12 C10         3.6715    2.2028   -0.0206 C.3       1 <0>         0.0519
     13 N1          4.2024    2.2559   -1.3893 N.4       1 <0>        -0.5040
     14 C11         5.4606    3.0141   -1.3975 C.3       1 <0>        -0.0438
     15 C12         6.0135    3.0693   -2.8230 C.3       1 <0>         0.0859
     16 H1          6.1138    2.0566   -3.2133 H         1 <0>         0.1342
     17 C13         7.3838    3.7499   -2.8125 C.3       1 <0>         0.0262
     18 O3          7.9515    3.6979   -4.1229 O.3       1 <0>        -0.2963
     19 C14         9.1767    4.2623   -4.2873 C.ar      1 <0>         0.1520
     20 C15         9.8219    4.8489   -3.2083 C.ar      1 <0>        -0.2111
     21 C16        11.0676    5.4215   -3.3779 C.ar      1 <0>        -0.0273
     22 C17        11.6712    5.4108   -4.6218 C.ar      1 <0>        -0.2114
     23 C18        11.0300    4.8272   -5.6989 C.ar      1 <0>        -0.0263
     24 C19         9.7869    4.2477   -5.5331 C.ar      1 <0>        -0.1446
     25 C20        13.0299    6.0366   -4.8041 C.3       1 <0>         0.5099
     26 F1         14.0205    5.0759   -4.5739 F         1 <0>        -0.1742
     27 F2         13.1474    6.5239   -6.1102 F         1 <0>        -0.1742
     28 F3         13.1831    7.0910   -3.8974 F         1 <0>        -0.1759
     29 O4          5.1186    3.8131   -3.6525 O.3       1 <0>        -0.5423
     30 H2         -0.9601    1.9046    0.0260 H         1 <0>         0.1482
     31 H3          1.1476    3.1710    0.0079 H         1 <0>         0.1440
     32 H4         -0.9244   -0.5591    0.0078 H         1 <0>         0.1496
     33 H5          1.3190   -3.6536   -1.2998 H         1 <0>         0.1160
     34 H6          1.3991   -2.0573   -2.0759 H         1 <0>         0.0609
     35 H7          3.5714   -3.2534   -0.3221 H         1 <0>         0.0935
     36 H8          3.5746   -3.2756   -2.0945 H         1 <0>         0.1017
     37 H9          4.9738   -1.4574   -1.3208 H         1 <0>         0.1158
     38 H10         3.5202   -0.7828   -2.0881 H         1 <0>         0.0545
     39 H11         3.4877    3.2158    0.3373 H         1 <0>         0.1441
     40 H12         4.3951    1.7130    0.6310 H         1 <0>         0.1454
     41 H13         4.3726    1.3182   -1.7206 H         1 <0>         0.4230
     42 H14         5.2767    4.0271   -1.0395 H         1 <0>         0.1446
     43 H15         6.1842    2.5242   -0.7459 H         1 <0>         0.1491
     44 H16         7.2706    4.7899   -2.5066 H         1 <0>         0.0820
     45 H17         8.0401    3.2343   -2.1115 H         1 <0>         0.0862
     46 H18         9.3506    4.8582   -2.2366 H         1 <0>         0.1370
     47 H19        11.5703    5.8783   -2.5382 H         1 <0>         0.1430
     48 H20        11.5034    4.8203   -6.6696 H         1 <0>         0.1490
     49 H21         9.2885    3.7881   -6.3737 H         1 <0>         0.1468
     50 H22         4.9817    4.7258   -3.3639 H         1 <0>         0.3917
     51 H23         3.5326    2.7094   -1.9925 H         1 <0>         0.4330
@<TRIPOS>BOND
     1    1    6 ar
     2    1    2 ar
     3    1   30 1
     4    2    3 ar
     5    2   31 1
     6    3    4 ar
     7    3   12 1
     8    4   11 1
     9    4    5 ar
    10    5    6 ar
    11    5    7 1
    12    6   32 1
    13    7    8 1
    14    8    9 1
    15    8   33 1
    16    8   34 1
    17    9   10 1
    18    9   35 1
    19    9   36 1
    20   10   11 1
    21   10   37 1
    22   10   38 1
    23   12   13 1
    24   12   39 1
    25   12   40 1
    26   13   14 1
    27   13   41 1
    28   13   51 1
    29   14   15 1
    30   14   42 1
    31   14   43 1
    32   15   16 1
    33   15   17 1
    34   15   29 1
    35   17   18 1
    36   17   44 1
    37   17   45 1
    38   18   19 1
    39   19   24 ar
    40   19   20 ar
    41   20   21 ar
    42   20   46 1
    43   21   22 ar
    44   21   47 1
    45   22   23 ar
    46   22   25 1
    47   23   24 ar
    48   23   48 1
    49   24   49 1
    50   25   26 1
    51   25   27 1
    52   25   28 1
    53   29   50 1
@<TRIPOS>MOLECULE
ZINC00039090
   27    27     0     0     0
SMALL
USER_CHARGES

@<TRIPOS>ATOM
      1 C1         -0.0178    1.4648    0.0101 C.3       1 <0>        -0.0478
      2 N1          0.0021   -0.0041    0.0020 N.4       1 <0>        -0.5065
      3 C2          0.7126   -0.4907    1.1921 C.3       1 <0>        -0.0439
      4 C3          0.7333   -2.0205    1.1837 C.3       1 <0>         0.1362
      5 H1         -0.2862   -2.3973    1.1019 H         1 <0>         0.1323
      6 C4          1.3528   -2.5216    2.4629 C.ar      1 <0>        -0.1379
      7 C5          2.7279   -2.5321    2.6054 C.ar      1 <0>        -0.0990
      8 C6          3.3010   -2.9907    3.7768 C.ar      1 <0>        -0.1236
      9 C7          2.4969   -3.4408    4.8116 C.ar      1 <0>         0.1051
     10 C8          1.1128   -3.4298    4.6684 C.ar      1 <0>         0.0900
     11 C9          0.5446   -2.9643    3.4934 C.ar      1 <0>        -0.1130
     12 O1          0.3193   -3.8705    5.6811 O.3       1 <0>        -0.4824
     13 O2          3.0591   -3.8927    5.9645 O.3       1 <0>        -0.4834
     14 O3          1.5019   -2.4804    0.0702 O.3       1 <0>        -0.5459
     15 H2          1.0047    1.8421    0.0024 H         1 <0>         0.1235
     16 H3         -0.5450    1.8259   -0.8730 H         1 <0>         0.1289
     17 H4         -0.5280    1.8163    0.9069 H         1 <0>         0.1239
     18 H5         -0.9445   -0.3533    0.0092 H         1 <0>         0.4318
     19 H6          1.7352   -0.1134    1.1844 H         1 <0>         0.1374
     20 H7          0.2024   -0.1392    2.0889 H         1 <0>         0.1442
     21 H8          3.3558   -2.1816    1.7996 H         1 <0>         0.1305
     22 H9          4.3755   -2.9985    3.8853 H         1 <0>         0.1437
     23 H10        -0.5294   -2.9512    3.3811 H         1 <0>         0.1391
     24 H11         0.0618   -3.1805    6.3078 H         1 <0>         0.3948
     25 H12         3.1939   -3.2060    6.6318 H         1 <0>         0.3974
     26 H13         2.4219   -2.1826    0.0775 H         1 <0>         0.3895
     27 H14         0.4744   -0.3295   -0.8281 H         1 <0>         0.4348
@<TRIPOS>BOND
     1    1    2 1
     2    1   15 1
     3    1   16 1
     4    1   17 1
     5    2    3 1
     6    2   18 1
     7    2   27 1
     8    3    4 1
     9    3   19 1
    10    3   20 1
    11    4    5 1
    12    4    6 1
    13    4   14 1
    14    6   11 ar
    15    6    7 ar
    16    7    8 ar
    17    7   21 1
    18    8    9 ar
    19    8   22 1
    20    9   10 ar
    21    9   13 1
    22   10   11 ar
    23   10   12 1
    24   11   23 1
    25   12   24 1
    26   13   25 1
    27   14   26 1
@<TRIPOS>MOLECULE
ZINC44475386
   36    36     0     0     0
SMALL
USER_CHARGES

@<TRIPOS>ATOM
      1 C1         -0.0187    1.5258    0.0104 C.3       1 <0>        -0.1552
      2 C2          0.0021   -0.0041    0.0020 C.3       1 <0>        -0.1206
      3 C3          0.7421   -0.5109    1.2415 C.3       1 <0>         0.0621
      4 O1          0.7614   -1.9398    1.2337 O.3       1 <0>        -0.3344
      5 C4          1.3853   -2.5541    2.2733 C.ar      1 <0>         0.1139
      6 C5          2.7396   -2.8456    2.1965 C.ar      1 <0>        -0.0765
      7 C6          3.3717   -3.4700    3.2540 C.ar      1 <0>        -0.0845
      8 C7          2.6551   -3.8053    4.3894 C.ar      1 <0>        -0.0295
      9 C8          1.3045   -3.5159    4.4676 C.ar      1 <0>        -0.1033
     10 C9          0.6700   -2.8854    3.4146 C.ar      1 <0>        -0.1474
     11 C10        -0.7996   -2.5638    3.5032 C.3       1 <0>         0.1155
     12 H1         -0.9978   -1.6247    2.9867 H         1 <0>         0.1170
     13 C11        -1.6076   -3.6862    2.8489 C.3       1 <0>         0.0029
     14 N1         -3.0419   -3.4327    3.0402 N.4       1 <0>        -0.6293
     15 N2         -1.1891   -2.4384    4.9141 N.3       1 <0>        -0.8544
     16 Cl1         3.4517   -4.5906    5.7169 Cl        1 <0>        -0.0441
     17 C12         3.5202   -2.4816    0.9600 C.3       1 <0>        -0.1222
     18 H2          1.0039    1.9031    0.0027 H         1 <0>         0.0613
     19 H3         -0.5459    1.8868   -0.8726 H         1 <0>         0.0695
     20 H4         -0.5289    1.8773    0.9072 H         1 <0>         0.0571
     21 H5         -1.0205   -0.3814    0.0098 H         1 <0>         0.0683
     22 H6          0.5123   -0.3556   -0.8948 H         1 <0>         0.0775
     23 H7          1.7647   -0.1336    1.2338 H         1 <0>         0.0623
     24 H8          0.2319   -0.1594    2.1383 H         1 <0>         0.0535
     25 H9          4.4259   -3.6971    3.1946 H         1 <0>         0.1469
     26 H10         0.7468   -3.7787    5.3544 H         1 <0>         0.1376
     27 H11        -1.3838   -3.7210    1.7827 H         1 <0>         0.1446
     28 H12        -1.3428   -4.6392    3.3070 H         1 <0>         0.1336
     29 H13        -3.2490   -3.4006    4.0272 H         1 <0>         0.4406
     30 H14        -3.2870   -2.5506    2.6162 H         1 <0>         0.4348
     31 H15        -1.0150   -3.2968    5.4150 H         1 <0>         0.3530
     32 H16        -0.7165   -1.6620    5.3521 H         1 <0>         0.3737
     33 H17         3.9289   -1.4772    1.0708 H         1 <0>         0.0790
     34 H18         4.3351   -3.1923    0.8224 H         1 <0>         0.0787
     35 H19         2.8613   -2.5120    0.0922 H         1 <0>         0.0811
     36 H20        -3.5747   -4.1729    2.6087 H         1 <0>         0.4368
@<TRIPOS>BOND
     1    1    2 1
     2    1   18 1
     3    1   19 1
     4    1   20 1
     5    2    3 1
     6    2   21 1
     7    2   22 1
     8    3    4 1
     9    3   23 1
    10    3   24 1
    11    4    5 1
    12    5   10 ar
    13    5    6 ar
    14    6    7 ar
    15    6   17 1
    16    7    8 ar
    17    7   25 1
    18    8    9 ar
    19    8   16 1
    20    9   10 ar
    21    9   26 1
    22   10   11 1
    23   11   12 1
    24   11   13 1
    25   11   15 1
    26   13   14 1
    27   13   27 1
    28   13   28 1
    29   14   29 1
    30   14   30 1
    31   14   36 1
    32   15   31 1
    33   15   32 1
    34   17   33 1
    35   17   34 1
    36   17   35 1
@<TRIPOS>MOLECULE
ZINC51920552
   33    34     0     0     0
SMALL
USER_CHARGES

@<TRIPOS>ATOM
      1 C1         -0.0187    1.5260    0.0104 C.3       1 <0>        -0.1471
      2 C2          1.4200    2.0506   -0.0005 C.3       1 <0>        -0.1351
      3 C3          2.1493    1.4868   -1.2234 C.3       1 <0>        -0.1006
      4 H1          1.6682    1.8477   -2.1325 H         1 <0>         0.0993
      5 C4          2.0897   -0.0418   -1.1861 C.3       1 <0>        -0.0132
      6 N1          0.6893   -0.4811   -1.2041 N.4       1 <0>        -0.5044
      7 C5          0.0021   -0.0041    0.0020 C.3       1 <0>        -0.0090
      8 C6          3.6096    1.9427   -1.2026 C.3       1 <0>        -0.1005
      9 C7          4.3054    1.4843   -2.4857 C.3       1 <0>        -0.1314
     10 S1          6.0368    2.0248   -2.4610 S.3       1 <0>         0.0411
     11 C8          6.6914    1.4283   -3.9843 C.2       1 <0>         0.2325
     12 N2          7.9519    1.5868   -4.4042 N.2       1 <0>        -0.5595
     13 C9          8.1008    1.0184   -5.5817 C.2       1 <0>         0.5539
     14 N3          6.9161    0.4790   -5.9371 N.pl3     1 <0>        -0.5099
     15 H2          6.7206   -0.0055   -6.7544 H         1 <0>         0.4402
     16 N4          6.0237    0.7521   -4.8880 N.2       1 <0>        -0.3355
     17 N5          9.2665    0.9811   -6.3248 N.pl3     1 <0>        -0.8188
     18 H3         -0.5277    1.8781    0.9076 H         1 <0>         0.1138
     19 H4         -0.5447    1.8877   -0.8730 H         1 <0>         0.0887
     20 H5          1.4106    3.1394   -0.0516 H         1 <0>         0.0974
     21 H6          1.9312    1.7317    0.9078 H         1 <0>         0.0856
     22 H7          2.6082   -0.4465   -2.0553 H         1 <0>         0.1337
     23 H8          2.5712   -0.4016   -0.2768 H         1 <0>         0.1344
     24 H9          0.2309   -0.1067   -2.0214 H         1 <0>         0.4279
     25 H10         0.5281   -0.3647    0.8860 H         1 <0>         0.1309
     26 H11        -1.0207   -0.3809    0.0100 H         1 <0>         0.1331
     27 H12         3.6499    3.0300   -1.1360 H         1 <0>         0.0986
     28 H13         4.1140    1.5070   -0.3401 H         1 <0>         0.0889
     29 H14         4.2651    0.3970   -2.5523 H         1 <0>         0.0891
     30 H15         3.8010    1.9200   -3.3482 H         1 <0>         0.0970
     31 H16        10.0725    1.3997   -5.9840 H         1 <0>         0.4297
     32 H17         9.2783    0.5363   -7.1867 H         1 <0>         0.4170
     33 H18         0.6543   -1.4890   -1.2335 H         1 <0>         0.4323
@<TRIPOS>BOND
     1    1    7 1
     2    1    2 1
     3    1   18 1
     4    1   19 1
     5    2    3 1
     6    2   20 1
     7    2   21 1
     8    3    4 1
     9    3    5 1
    10    3    8 1
    11    5    6 1
    12    5   22 1
    13    5   23 1
    14    6    7 1
    15    6   24 1
    16    6   33 1
    17    7   25 1
    18    7   26 1
    19    8    9 1
    20    8   27 1
    21    8   28 1
    22    9   10 1
    23    9   29 1
    24    9   30 1
    25   10   11 1
    26   11   16 2
    27   11   12 1
    28   12   13 2
    29   13   14 1
    30   13   17 1
    31   14   15 1
    32   14   16 1
    33   17   31 1
    34   17   32 1
@<TRIPOS>MOLECULE
ZINC55126583
   38    38     0     0     0
SMALL
USER_CHARGES

@<TRIPOS>ATOM
      1 C1         -0.0178    1.4608    0.0101 C.3       1 <0>         0.0833
      2 N1          0.0021   -0.0041    0.0020 N.am      1 <0>        -0.7253
      3 C2         -1.1558   -0.6938    0.0094 C.2       1 <0>         0.5064
      4 O1         -2.2142   -0.1017    0.0227 O.2       1 <0>        -0.5383
      5 C3         -1.1354   -2.2006    0.0011 C.3       1 <0>         0.0971
      6 N2         -2.5098   -2.7077    0.0115 N.am      1 <0>        -0.7141
      7 C4         -2.7381   -4.0360    0.0065 C.2       1 <0>         0.5163
      8 O2         -1.8057   -4.8115   -0.0065 O.2       1 <0>        -0.5262
      9 C5         -4.1519   -4.5576    0.0172 C.3       1 <0>        -0.1593
     10 C6         -4.1311   -6.0874    0.0088 C.3       1 <0>        -0.0890
     11 H1         -3.5288   -6.4472    0.8430 H         1 <0>         0.1063
     12 C7         -3.5271   -6.5821   -1.3070 C.3       1 <0>        -0.1205
     13 C8         -4.3726   -6.0770   -2.4779 C.3       1 <0>        -0.1342
     14 C9         -5.8013   -6.6072   -2.3414 C.3       1 <0>        -0.1180
     15 C10        -6.4053   -6.1126   -1.0256 C.3       1 <0>        -0.1447
     16 C11        -5.5598   -6.6176    0.1453 C.3       1 <0>         0.0295
     17 H2         -5.5450   -7.7075    0.1393 H         1 <0>         0.1488
     18 N3         -6.1397   -6.1427    1.4087 N.4       1 <0>        -0.6397
     19 H3          1.0048    1.8381    0.0023 H         1 <0>         0.0835
     20 H4         -0.5450    1.8219   -0.8730 H         1 <0>         0.0651
     21 H5         -0.5280    1.8123    0.9069 H         1 <0>         0.0648
     22 H6          0.8486   -0.4776   -0.0086 H         1 <0>         0.4083
     23 H7         -0.6252   -2.5521   -0.8957 H         1 <0>         0.1052
     24 H8         -0.6082   -2.5617    0.8841 H         1 <0>         0.1047
     25 H9         -3.2555   -2.0875    0.0219 H         1 <0>         0.4137
     26 H10        -4.6621   -4.2061    0.9140 H         1 <0>         0.0861
     27 H11        -4.6791   -4.1965   -0.8658 H         1 <0>         0.1174
     28 H12        -2.5093   -6.2043   -1.4043 H         1 <0>         0.1036
     29 H13        -3.5124   -7.6719   -1.3130 H         1 <0>         0.0771
     30 H14        -4.3874   -4.9871   -2.4720 H         1 <0>         0.0673
     31 H15        -3.9423   -6.4294   -3.4154 H         1 <0>         0.0808
     32 H16        -6.4036   -6.2474   -3.1756 H         1 <0>         0.0853
     33 H17        -5.7865   -7.6971   -2.3474 H         1 <0>         0.0768
     34 H18        -6.4201   -5.0227   -1.0196 H         1 <0>         0.0880
     35 H19        -7.4231   -6.4903   -0.9283 H         1 <0>         0.0904
     36 H20        -6.1534   -5.1338    1.4143 H         1 <0>         0.4289
     37 H21        -7.0819   -6.4923    1.4988 H         1 <0>         0.4373
     38 H22        -5.5821   -6.4758    2.1809 H         1 <0>         0.4372
@<TRIPOS>BOND
     1    1    2 1
     2    1   19 1
     3    1   20 1
     4    1   21 1
     5    2    3 am
     6    2   22 1
     7    3    4 2
     8    3    5 1
     9    5    6 1
    10    5   23 1
    11    5   24 1
    12    6    7 am
    13    6   25 1
    14    7    8 2
    15    7    9 1
    16    9   10 1
    17    9   26 1
    18    9   27 1
    19   10   11 1
    20   10   16 1
    21   10   12 1
    22   12   13 1
    23   12   28 1
    24   12   29 1
    25   13   14 1
    26   13   30 1
    27   13   31 1
    28   14   15 1
    29   14   32 1
    30   14   33 1
    31   15   16 1
    32   15   34 1
    33   15   35 1
    34   16   17 1
    35   16   18 1
    36   18   36 1
    37   18   37 1
    38   18   38 1
@<TRIPOS>MOLECULE
ZINC63172611
   35    37     0     0     0
SMALL
USER_CHARGES

@<TRIPOS>ATOM
      1 C1         -0.0168    1.3845    0.0097 C.ar      1 <0>        -0.1249
      2 C2          0.0021   -0.0041    0.0020 C.ar      1 <0>        -0.0743
      3 C3         -1.1717   -0.7242    0.0098 C.ar      1 <0>        -0.1163
      4 C4         -2.3905   -0.0540    0.0255 C.ar      1 <0>         0.0645
      5 C5         -2.4013    1.3548    0.0332 C.ar      1 <0>        -0.1067
      6 C6         -1.2036    2.0629    0.0303 C.ar      1 <0>        -0.0523
      7 C7         -3.8272    1.7080    0.0484 C.2       1 <0>        -0.0188
      8 N1         -4.4905    0.5718    0.0486 N.2       1 <0>        -0.2098
      9 H1         -4.0024   -1.3664    0.0333 H         1 <0>         0.4522
     10 N2         -3.7046   -0.4433    0.0357 N.pl3     1 <0>        -0.4023
     11 C8         -4.4008    3.0657    0.0615 C.2       1 <0>         0.6213
     12 O1         -3.6673    4.0357    0.0603 O.2       1 <0>        -0.4942
     13 N3         -5.7382    3.2321    0.0749 N.am      1 <0>        -0.7442
     14 C9         -6.3083    4.5816    0.0879 C.3       1 <0>         0.1280
     15 H2         -5.6688    5.2512    0.6630 H         1 <0>         0.1273
     16 C10        -6.4593    5.1039   -1.3516 C.3       1 <0>        -0.1401
     17 C11        -7.9630    5.3721   -1.5676 C.3       1 <0>        -0.1226
     18 C12        -8.6644    4.4585   -0.5320 C.3       1 <0>        -0.1439
     19 C13        -7.7250    4.5508    0.6976 C.3       1 <0>         0.0134
     20 H3         -7.9189    5.4651    1.2584 H         1 <0>         0.1653
     21 N4         -7.8882    3.3728    1.5600 N.4       1 <0>        -0.6334
     22 H4          0.9136    1.9329    0.0037 H         1 <0>         0.1373
     23 H5          0.9480   -0.5251   -0.0105 H         1 <0>         0.1400
     24 H6         -1.1461   -1.8038    0.0034 H         1 <0>         0.1352
     25 H7         -1.2116    3.1429    0.0362 H         1 <0>         0.1393
     26 H8         -6.3232    2.4584    0.0759 H         1 <0>         0.3949
     27 H9         -5.8937    6.0275   -1.4748 H         1 <0>         0.0947
     28 H10        -6.1083    4.3533   -2.0598 H         1 <0>         0.0874
     29 H11        -8.1957    6.4189   -1.3722 H         1 <0>         0.0870
     30 H12        -8.2579    5.0974   -2.5803 H         1 <0>         0.0917
     31 H13        -9.6563    4.8399   -0.2896 H         1 <0>         0.1037
     32 H14        -8.7224    3.4334   -0.8979 H         1 <0>         0.0916
     33 H15        -7.2105    3.4063    2.3068 H         1 <0>         0.4395
     34 H16        -8.8187    3.3679    1.9501 H         1 <0>         0.4414
     35 H17        -7.7474    2.5352    1.0153 H         1 <0>         0.4279
@<TRIPOS>BOND
     1    1    2 ar
     2    1   22 1
     3    1    6 ar
     4    2    3 ar
     5    2   23 1
     6    3    4 ar
     7    3   24 1
     8    4   10 1
     9    4    5 ar
    10    5    6 ar
    11    5    7 1
    12    6   25 1
    13    7    8 2
    14    7   11 1
    15    8   10 1
    16    9   10 1
    17   11   12 2
    18   11   13 am
    19   13   14 1
    20   13   26 1
    21   14   15 1
    22   14   19 1
    23   14   16 1
    24   16   17 1
    25   16   27 1
    26   16   28 1
    27   17   18 1
    28   17   29 1
    29   17   30 1
    30   18   19 1
    31   18   31 1
    32   18   32 1
    33   19   20 1
    34   19   21 1
    35   21   33 1
    36   21   34 1
    37   21   35 1
@<TRIPOS>MOLECULE
ZINC37659085
   42    43     0     0     0
SMALL
USER_CHARGES

@<TRIPOS>ATOM
      1 C1         -0.9089    0.9601    0.0581 C.3       1 <0>        -0.1416
      2 C2         -0.7196   -0.5203    0.2676 C.ar      1 <0>        -0.0695
      3 C3         -1.0136   -1.4022   -0.7546 C.ar      1 <0>        -0.0658
      4 C4         -0.8412   -2.7596   -0.5664 C.ar      1 <0>        -0.1346
      5 C5         -0.3730   -3.2343    0.6492 C.ar      1 <0>         0.1419
      6 C6         -0.0775   -2.3468    1.6766 C.ar      1 <0>        -0.1970
      7 C7         -0.2463   -0.9894    1.4817 C.ar      1 <0>        -0.0501
      8 C8          0.1466   -0.2395    2.7367 C.3       1 <0>        -0.0624
      9 H1          1.1370    0.2005    2.6199 H         1 <0>         0.0982
     10 C9          0.1618   -1.3034    3.8549 C.3       1 <0>        -0.1353
     11 C10         0.4390   -2.6030    3.0761 C.3       1 <0>         0.0849
     12 H2         -0.0897   -3.4430    3.5266 H         1 <0>         0.1506
     13 N1          1.8840   -2.8658    3.0460 N.4       1 <0>        -0.5045
     14 C11         2.3644   -3.1177    4.4112 C.3       1 <0>        -0.0147
     15 C12         3.8761   -3.3522    4.3847 C.3       1 <0>        -0.1356
     16 C13         4.3765   -3.6146    5.8065 C.3       1 <0>        -0.1412
     17 C14         5.8655   -3.8456    5.7804 C.2       1 <0>         0.5156
     18 O1          6.4672   -3.8044    4.7282 O.2       1 <0>        -0.5431
     19 N2          6.5285   -4.0979    6.9264 N.am      1 <0>        -0.8503
     20 C15        -0.8830    0.8480    3.0497 C.3       1 <0>        -0.1596
     21 O2         -0.2031   -4.5696    0.8363 O.3       1 <0>        -0.4927
     22 H3          0.0447    1.4138   -0.2116 H         1 <0>         0.0783
     23 H4         -1.6291    1.1244   -0.7434 H         1 <0>         0.0750
     24 H5         -1.2794    1.4127    0.9779 H         1 <0>         0.0886
     25 H6         -1.3785   -1.0302   -1.7006 H         1 <0>         0.1435
     26 H7         -1.0711   -3.4500   -1.3645 H         1 <0>         0.1454
     27 H8          0.9560   -1.0994    4.5730 H         1 <0>         0.1024
     28 H9         -0.8069   -1.3571    4.3517 H         1 <0>         0.1196
     29 H10         2.0669   -3.6742    2.4706 H         1 <0>         0.4260
     30 H11         2.1415   -2.2555    5.0397 H         1 <0>         0.1356
     31 H12         1.8670   -3.9997    4.8145 H         1 <0>         0.1361
     32 H13         4.0991   -4.2144    3.7561 H         1 <0>         0.0964
     33 H14         4.3736   -2.4702    3.9814 H         1 <0>         0.0961
     34 H15         4.1536   -2.7524    6.4351 H         1 <0>         0.1069
     35 H16         3.8790   -4.4966    6.2098 H         1 <0>         0.1073
     36 H17         6.0473   -4.1308    7.7679 H         1 <0>         0.4057
     37 H18         7.4869   -4.2466    6.9096 H         1 <0>         0.4099
     38 H19        -1.8874    0.4348    2.9574 H         1 <0>         0.0668
     39 H20        -0.7312    1.2103    4.0664 H         1 <0>         0.0701
     40 H21        -0.7639    1.6738    2.3482 H         1 <0>         0.0795
     41 H22         0.6964   -4.8796    0.6635 H         1 <0>         0.3914
     42 H23         2.3636   -2.0649    2.6631 H         1 <0>         0.4266
@<TRIPOS>BOND
     1    1    2 1
     2    1   22 1
     3    1   23 1
     4    1   24 1
     5    2    7 ar
     6    2    3 ar
     7    3    4 ar
     8    3   25 1
     9    4    5 ar
    10    4   26 1
    11    5    6 ar
    12    5   21 1
    13    6   11 1
    14    6    7 ar
    15    7    8 1
    16    8    9 1
    17    8   10 1
    18    8   20 1
    19   10   11 1
    20   10   27 1
    21   10   28 1
    22   11   12 1
    23   11   13 1
    24   13   14 1
    25   13   29 1
    26   13   42 1
    27   14   15 1
    28   14   30 1
    29   14   31 1
    30   15   16 1
    31   15   32 1
    32   15   33 1
    33   16   17 1
    34   16   34 1
    35   16   35 1
    36   17   18 2
    37   17   19 am
    38   19   36 1
    39   19   37 1
    40   20   38 1
    41   20   39 1
    42   20   40 1
    43   21   41 1
@<TRIPOS>MOLECULE
ZINC43320409
   30    31     0     0     0
SMALL
USER_CHARGES

@<TRIPOS>ATOM
      1 C1         -1.3596    1.1213   -0.1668 C.3       1 <0>        -0.1210
      2 C2         -0.6116   -0.1842   -0.0820 C.ar      1 <0>        -0.1507
      3 C3          0.0338   -0.6905   -1.2036 C.ar      1 <0>         0.1861
      4 C4          0.7228   -1.8945   -1.1209 C.ar      1 <0>        -0.2032
      5 C5          0.7646   -2.5848    0.0746 C.ar      1 <0>        -0.0483
      6 C6          0.1221   -2.0800    1.1897 C.ar      1 <0>        -0.1657
      7 C7         -0.5617   -0.8773    1.1135 C.ar      1 <0>         0.1482
      8 F1         -1.1839   -0.3840    2.2065 F         1 <0>        -0.1216
      9 N1         -0.0103    0.0087   -2.4110 N.pl3     1 <0>        -0.6370
     10 C8          0.0993   -0.6822   -3.6249 C.2       1 <0>         0.2526
     11 C9          0.1997   -0.1348   -4.8635 C.2       1 <0>         0.2646
     12 N2          0.2853   -1.1356   -5.7548 N.pl3     1 <0>        -0.4742
     13 C10         0.2429   -2.2806   -5.1285 C.cat     1 <0>         0.3138
     14 N3          0.1320   -2.0458   -3.7933 N.pl3     1 <0>        -0.5133
     15 H1          0.0833   -2.7146   -3.0924 H         1 <0>         0.4631
     16 C11         0.3114   -3.6389   -5.7777 C.3       1 <0>        -0.1079
     17 N4          0.2111    1.2435   -5.1617 N.pl3     1 <0>        -0.8417
     18 H2         -0.6841    1.9431    0.0710 H         1 <0>         0.0821
     19 H3         -1.7493    1.2519   -1.1763 H         1 <0>         0.0691
     20 H4         -2.1862    1.1133    0.5436 H         1 <0>         0.0840
     21 H5          1.2249   -2.2904   -1.9913 H         1 <0>         0.1238
     22 H6          1.2999   -3.5207    0.1383 H         1 <0>         0.1465
     23 H7          0.1567   -2.6221    2.1231 H         1 <0>         0.1482
     24 H8         -0.1167    0.9728   -2.4095 H         1 <0>         0.4352
     25 H9          1.3518   -3.9567   -5.8465 H         1 <0>         0.1222
     26 H10        -0.2489   -4.3567   -5.1786 H         1 <0>         0.1177
     27 H11        -0.1191   -3.5857   -6.7777 H         1 <0>         0.1186
     28 H12         0.1433    1.8951   -4.4463 H         1 <0>         0.4261
     29 H13         0.2869    1.5399   -6.0821 H         1 <0>         0.4197
     30 H14         0.3657   -1.0251   -6.7151 H         1 <0>         0.4630
@<TRIPOS>BOND
     1    1    2 1
     2    1   18 1
     3    1   19 1
     4    1   20 1
     5    2    7 ar
     6    2    3 ar
     7    3    4 ar
     8    3    9 1
     9    4    5 ar
    10    4   21 1
    11    5    6 ar
    12    5   22 1
    13    6    7 ar
    14    6   23 1
    15    7    8 1
    16    9   10 1
    17    9   24 1
    18   10   14 1
    19   10   11 2
    20   11   12 1
    21   11   17 1
    22   12   13 2
    23   12   30 1
    24   13   14 1
    25   13   16 1
    26   14   15 1
    27   16   25 1
    28   16   26 1
    29   16   27 1
    30   17   28 1
    31   17   29 1
@<TRIPOS>MOLECULE
ZINC49965757
   33    33     0     0     0
SMALL
USER_CHARGES

@<TRIPOS>ATOM
      1 C1         -0.0187    1.5258    0.0104 C.3       1 <0>        -0.1810
      2 C2          0.0021   -0.0041    0.0020 C.3       1 <0>         0.0238
      3 C3          0.7421   -0.5109    1.2415 C.3       1 <0>         0.1199
      4 N1         -0.0083   -0.1401    2.4439 N.pl3     1 <0>        -0.6463
      5 C4         -1.0253   -1.0472    2.9815 C.3       1 <0>         0.0709
      6 C5          0.2462    1.0796    3.0784 C.ar      1 <0>         0.1713
      7 C6          1.2060    1.9429    2.5663 C.ar      1 <0>        -0.1625
      8 C7          1.4554    3.1475    3.1944 C.ar      1 <0>        -0.1074
      9 C8          0.7493    3.4946    4.3338 C.ar      1 <0>         0.0689
     10 C9         -0.2081    2.6354    4.8461 C.ar      1 <0>        -0.1057
     11 C10        -0.4645    1.4322    4.2182 C.ar      1 <0>        -0.1502
     12 F1          0.9951    4.6731    4.9468 F         1 <0>        -0.1345
     13 C11         0.7074   -0.4901   -1.2379 C.2       1 <0>         0.5123
     14 O1          1.8885   -0.7628   -1.1961 O.2       1 <0>        -0.4721
     15 N2          0.0259   -0.6217   -2.3931 N.am      1 <0>        -0.8460
     16 N3         -1.3761   -0.5125    0.0124 N.4       1 <0>        -0.6316
     17 H1          1.0039    1.9031    0.0027 H         1 <0>         0.1183
     18 H2         -0.5459    1.8868   -0.8726 H         1 <0>         0.0893
     19 H3         -0.5289    1.8773    0.9072 H         1 <0>         0.1059
     20 H4          0.8346   -1.5958    1.1912 H         1 <0>         0.1110
     21 H5          1.7350   -0.0630    1.2804 H         1 <0>         0.1342
     22 H6         -0.5642   -1.7253    3.6997 H         1 <0>         0.0748
     23 H7         -1.8038   -0.4674    3.4773 H         1 <0>         0.0893
     24 H8         -1.4645   -1.6240    2.1675 H         1 <0>         0.0537
     25 H9          1.7572    1.6724    1.6779 H         1 <0>         0.1347
     26 H10         2.2020    3.8190    2.7968 H         1 <0>         0.1425
     27 H11        -0.7575    2.9080    5.7351 H         1 <0>         0.1429
     28 H12        -1.2146    0.7643    4.6156 H         1 <0>         0.1372
     29 H13        -0.9187   -0.4036   -2.4265 H         1 <0>         0.3966
     30 H14         0.4799   -0.9345   -3.1912 H         1 <0>         0.4291
     31 H15        -1.8641   -0.1783   -0.8050 H         1 <0>         0.4311
     32 H16        -1.3624   -1.5214    0.0069 H         1 <0>         0.4378
     33 H17        -1.8484   -0.1871    0.8426 H         1 <0>         0.4419
@<TRIPOS>BOND
     1    1    2 1
     2    1   17 1
     3    1   18 1
     4    1   19 1
     5    2    3 1
     6    2   13 1
     7    2   16 1
     8    3    4 1
     9    3   20 1
    10    3   21 1
    11    4    5 1
    12    4    6 1
    13    5   22 1
    14    5   23 1
    15    5   24 1
    16    6   11 ar
    17    6    7 ar
    18    7    8 ar
    19    7   25 1
    20    8    9 ar
    21    8   26 1
    22    9   10 ar
    23    9   12 1
    24   10   11 ar
    25   10   27 1
    26   11   28 1
    27   13   14 2
    28   13   15 am
    29   15   29 1
    30   15   30 1
    31   16   31 1
    32   16   32 1
    33   16   33 1
@<TRIPOS>MOLECULE
ZINC53118466
   41    41     0     0     0
SMALL
USER_CHARGES

@<TRIPOS>ATOM
      1 C1         -0.2142    1.5578    0.0370 C.3       1 <0>        -0.1552
      2 C2         -0.1637    0.0292   -0.0032 C.3       1 <0>        -0.1003
      3 C3         -1.5811   -0.5316    0.1286 C.3       1 <0>        -0.1285
      4 C4         -1.5306   -2.0602    0.0884 C.3       1 <0>        -0.1406
      5 C5         -0.6698   -2.5727    1.2448 C.3       1 <0>         0.0703
      6 C6          0.7476   -2.0119    1.1130 C.3       1 <0>        -0.1333
      7 C7          0.6971   -0.4833    1.1532 C.3       1 <0>        -0.1322
      8 C8         -0.6193   -4.1013    1.2045 C.3       1 <0>         0.0558
      9 O1          0.0785   -4.5853    2.3538 O.3       1 <0>        -0.5798
     10 N1         -1.2527   -2.1354    2.5203 N.4       1 <0>        -0.5001
     11 C9         -2.5672   -2.7662    2.6998 C.3       1 <0>        -0.0002
     12 C10        -3.2258   -2.2205    3.9684 C.3       1 <0>        -0.1387
     13 H1         -3.2693   -1.1327    3.9161 H         1 <0>         0.1205
     14 C11        -2.4054   -2.6400    5.1898 C.3       1 <0>        -0.1666
     15 C12        -4.6225   -2.7739    4.0872 C.2       1 <0>         0.5294
     16 O2         -5.0491   -3.5303    3.2406 O.2       1 <0>        -0.5333
     17 N2         -5.3975   -2.4284    5.1343 N.am      1 <0>        -0.8415
     18 H2          0.7956    1.9573   -0.0569 H         1 <0>         0.0649
     19 H3         -0.8274    1.9229   -0.7868 H         1 <0>         0.0645
     20 H4         -0.6467    1.8823    0.9835 H         1 <0>         0.0558
     21 H5          0.2688   -0.2953   -0.9497 H         1 <0>         0.0879
     22 H6         -2.0136   -0.2071    1.0750 H         1 <0>         0.0570
     23 H7         -2.1944   -0.1665   -0.6953 H         1 <0>         0.0964
     24 H8         -2.5404   -2.4597    0.1823 H         1 <0>         0.0935
     25 H9         -1.0981   -2.3847   -0.8581 H         1 <0>         0.1155
     26 H10         1.3609   -2.3770    1.9368 H         1 <0>         0.0972
     27 H11         1.1801   -2.3364    0.1665 H         1 <0>         0.1114
     28 H12         1.7069   -0.0838    1.0593 H         1 <0>         0.0943
     29 H13         0.2646   -0.1588    2.0996 H         1 <0>         0.0566
     30 H14        -1.6344   -4.4984    1.2019 H         1 <0>         0.0765
     31 H15        -0.1005   -4.4241    0.3019 H         1 <0>         0.0939
     32 H16         0.1490   -5.5488    2.3943 H         1 <0>         0.4102
     33 H17        -0.6439   -2.4052    3.2784 H         1 <0>         0.4311
     34 H18        -3.1975   -2.5438    1.8387 H         1 <0>         0.1424
     35 H19        -2.4431   -3.8453    2.7902 H         1 <0>         0.1431
     36 H20        -1.3952   -2.2397    5.1039 H         1 <0>         0.0681
     37 H21        -2.8746   -2.2513    6.0936 H         1 <0>         0.0883
     38 H22        -2.3619   -3.7279    5.2421 H         1 <0>         0.0822
     39 H23        -5.0562   -1.8234    5.8114 H         1 <0>         0.4068
     40 H24        -6.2964   -2.7846    5.2108 H         1 <0>         0.4154
     41 H25        -1.3591   -1.1320    2.5151 H         1 <0>         0.4211
@<TRIPOS>BOND
     1    1    2 1
     2    1   18 1
     3    1   19 1
     4    1   20 1
     5    2    7 1
     6    2    3 1
     7    2   21 1
     8    3    4 1
     9    3   22 1
    10    3   23 1
    11    4    5 1
    12    4   24 1
    13    4   25 1
    14    5    6 1
    15    5    8 1
    16    5   10 1
    17    6    7 1
    18    6   26 1
    19    6   27 1
    20    7   28 1
    21    7   29 1
    22    8    9 1
    23    8   30 1
    24    8   31 1
    25    9   32 1
    26   10   11 1
    27   10   33 1
    28   10   41 1
    29   11   12 1
    30   11   34 1
    31   11   35 1
    32   12   13 1
    33   12   14 1
    34   12   15 1
    35   14   36 1
    36   14   37 1
    37   14   38 1
    38   15   16 2
    39   15   17 am
    40   17   39 1
    41   17   40 1
@<TRIPOS>MOLECULE
ZINC62525900
   45    45     0     0     0
SMALL
USER_CHARGES

@<TRIPOS>ATOM
      1 C1         -0.0187    1.5258    0.0104 C.3       1 <0>        -0.1586
      2 C2          0.0021   -0.0041    0.0020 C.3       1 <0>        -0.1221
      3 C3          0.7182   -0.4975   -1.2568 C.3       1 <0>        -0.0945
      4 C4         -0.0892   -0.0968   -2.4931 C.3       1 <0>        -0.1143
      5 C5          0.6269   -0.5903   -3.7519 C.3       1 <0>        -0.1419
      6 C6          0.7579   -2.1137   -3.7000 C.3       1 <0>         0.0266
      7 C7          1.5654   -2.5144   -2.4637 C.3       1 <0>        -0.1404
      8 C8          0.8493   -2.0210   -1.2049 C.3       1 <0>        -0.1133
      9 N1          1.4455   -2.5875   -4.9086 N.4       1 <0>        -0.3854
     10 C9          1.5713   -4.0503   -4.8589 C.3       1 <0>        -0.0574
     11 C10         0.6703   -2.2028   -6.0956 C.3       1 <0>        -0.0081
     12 C11         1.4461   -2.5855   -7.3576 C.3       1 <0>        -0.1362
     13 C12         0.6387   -2.1849   -8.5938 C.3       1 <0>         0.0782
     14 H1         -0.3534   -2.6333   -8.5409 H         1 <0>         0.1154
     15 C13         1.3441   -2.6709   -9.8337 C.2       1 <0>         0.4786
     16 O1          2.0179   -1.9037  -10.4882 O.2       1 <0>        -0.5314
     17 N2          1.2261   -3.9581  -10.2153 N.am      1 <0>        -0.8493
     18 N3          0.5129   -0.7221   -8.6436 N.3       1 <0>        -0.8254
     19 H2          1.0039    1.9031    0.0027 H         1 <0>         0.0556
     20 H3         -0.5459    1.8868   -0.8726 H         1 <0>         0.0563
     21 H4         -0.5289    1.8773    0.9072 H         1 <0>         0.0594
     22 H5          0.5293   -0.3651    0.8851 H         1 <0>         0.0674
     23 H6         -1.0205   -0.3814    0.0098 H         1 <0>         0.0652
     24 H7          1.7103   -0.0491   -1.3098 H         1 <0>         0.0772
     25 H8         -1.0813   -0.5452   -2.4401 H         1 <0>         0.0741
     26 H9         -0.1826    0.9885   -2.5300 H         1 <0>         0.0875
     27 H10         0.0517   -0.3048   -4.6326 H         1 <0>         0.0910
     28 H11         1.6190   -0.1418   -3.8049 H         1 <0>         0.0859
     29 H12        -0.2341   -2.5622   -3.6470 H         1 <0>         0.1362
     30 H13         1.6587   -3.5998   -2.4268 H         1 <0>         0.0876
     31 H14         2.5575   -2.0660   -2.5167 H         1 <0>         0.0858
     32 H15         1.4245   -2.3064   -0.3242 H         1 <0>         0.0844
     33 H16        -0.1428   -2.4694   -1.1520 H         1 <0>         0.0745
     34 H17         2.0815   -4.4018   -5.7557 H         1 <0>         0.1230
     35 H18         2.1466   -4.3357   -3.9781 H         1 <0>         0.1262
     36 H19         0.5793   -4.4987   -4.8059 H         1 <0>         0.1234
     37 H20        -0.2884   -2.7215   -6.0872 H         1 <0>         0.1307
     38 H21         0.5009   -1.1261   -6.0858 H         1 <0>         0.1478
     39 H22         2.4048   -2.0669   -7.3660 H         1 <0>         0.0942
     40 H23         1.6155   -3.6622   -7.3674 H         1 <0>         0.0947
     41 H24         0.6872   -4.5717   -9.6919 H         1 <0>         0.4027
     42 H25         1.6801   -4.2709  -11.0134 H         1 <0>         0.4083
     43 H26         1.4198   -0.2826   -8.6932 H         1 <0>         0.3567
     44 H27        -0.0705   -0.4354   -9.4154 H         1 <0>         0.3615
     45 H28         2.3639   -2.1724   -4.9577 H         1 <0>         0.4222
@<TRIPOS>BOND
     1    1    2 1
     2    1   19 1
     3    1   20 1
     4    1   21 1
     5    2    3 1
     6    2   22 1
     7    2   23 1
     8    3    8 1
     9    3    4 1
    10    3   24 1
    11    4    5 1
    12    4   25 1
    13    4   26 1
    14    5    6 1
    15    5   27 1
    16    5   28 1
    17    6    7 1
    18    6    9 1
    19    6   29 1
    20    7    8 1
    21    7   30 1
    22    7   31 1
    23    8   32 1
    24    8   33 1
    25    9   10 1
    26    9   11 1
    27    9   45 1
    28   10   34 1
    29   10   35 1
    30   10   36 1
    31   11   12 1
    32   11   37 1
    33   11   38 1
    34   12   13 1
    35   12   39 1
    36   12   40 1
    37   13   14 1
    38   13   15 1
    39   13   18 1
    40   15   16 2
    41   15   17 am
    42   17   41 1
    43   17   42 1
    44   18   43 1
    45   18   44 1
@<TRIPOS>MOLECULE
ZINC37157686
   53    54     0     0     0
SMALL
USER_CHARGES

@<TRIPOS>ATOM
      1 C1          0.0889    1.0371    0.4346 C.3       1 <0>        -0.1516
      2 C2          0.1867   -0.4792    0.2549 C.3       1 <0>        -0.0610
      3 C3          1.0904   -1.0643    1.3420 C.3       1 <0>        -0.1516
      4 C4         -1.2088   -1.0968    0.3648 C.3       1 <0>        -0.1517
      5 C5          0.7762   -0.7926   -1.1217 C.3       1 <0>        -0.0700
      6 H1          0.1324   -0.3758   -1.8961 H         1 <0>         0.0874
      7 C6          0.8740   -2.3089   -1.3013 C.3       1 <0>        -0.1311
      8 C7          1.4636   -2.6224   -2.6779 C.3       1 <0>        -0.1268
      9 C8          2.8590   -2.0047   -2.7878 C.3       1 <0>        -0.1399
     10 H2          3.5029   -2.4216   -2.0134 H         1 <0>         0.1202
     11 C9          2.7612   -0.4885   -2.6082 C.3       1 <0>         0.0354
     12 H3          2.1174   -0.0716   -3.3827 H         1 <0>         0.1524
     13 C10         2.1717   -0.1750   -1.2316 C.3       1 <0>        -0.1483
     14 N1          4.1010    0.1046   -2.7137 N.4       1 <0>        -0.3874
     15 C11         3.9911    1.5678   -2.6775 C.3       1 <0>        -0.0068
     16 C12         5.3750    2.1920   -2.8683 C.3       1 <0>        -0.1444
     17 C13         6.3013    1.7202   -1.7438 C.3       1 <0>         0.0951
     18 C14         6.3499    0.1895   -1.7443 C.3       1 <0>        -0.1833
     19 C15         4.9298   -0.3605   -1.5950 C.3       1 <0>        -0.0159
     20 O1          7.6152    2.2400   -1.9572 O.3       1 <0>        -0.5497
     21 C16         3.4486   -2.3182   -4.1644 C.3       1 <0>        -0.0211
     22 N2          3.6416   -3.7686   -4.2957 N.4       1 <0>        -0.6353
     23 H4          1.0830    1.4772    0.3563 H         1 <0>         0.0514
     24 H5         -0.5550    1.4540   -0.3399 H         1 <0>         0.0609
     25 H6         -0.3311    1.2605    1.4153 H         1 <0>         0.0679
     26 H7          0.6705   -0.8409    2.3228 H         1 <0>         0.0674
     27 H8          1.1601   -2.1445    1.2141 H         1 <0>         0.0597
     28 H9          2.0846   -0.6242    1.2637 H         1 <0>         0.0504
     29 H10        -1.8526   -0.6800   -0.4096 H         1 <0>         0.0604
     30 H11        -1.1391   -2.1770    0.2368 H         1 <0>         0.0599
     31 H12        -1.6288   -0.8735    1.3455 H         1 <0>         0.0667
     32 H13         1.5179   -2.7257   -0.5269 H         1 <0>         0.0808
     33 H14        -0.1201   -2.7489   -1.2230 H         1 <0>         0.0962
     34 H15         1.5333   -3.7026   -2.8059 H         1 <0>         0.0819
     35 H16         0.8197   -2.2056   -3.4524 H         1 <0>         0.0940
     36 H17         2.1020    0.9052   -1.1036 H         1 <0>         0.1038
     37 H18         2.8155   -0.5918   -0.4571 H         1 <0>         0.0981
     38 H19         3.3290    1.9019   -3.4763 H         1 <0>         0.1425
     39 H20         3.5829    1.8773   -1.7153 H         1 <0>         0.1383
     40 H21         5.7840    1.8833   -3.8304 H         1 <0>         0.0966
     41 H22         5.2915    3.2784   -2.8393 H         1 <0>         0.1268
     42 H23         5.9199    2.0724   -0.7854 H         1 <0>         0.0764
     43 H24         6.7791   -0.1607   -2.6830 H         1 <0>         0.0950
     44 H25         6.9632   -0.1554   -0.9118 H         1 <0>         0.1194
     45 H26         4.5017   -0.0098   -0.6559 H         1 <0>         0.1412
     46 H27         4.9608   -1.4500   -1.5948 H         1 <0>         0.1275
     47 H28         8.2556    1.9803   -1.2808 H         1 <0>         0.3980
     48 H29         2.7657   -1.9709   -4.9398 H         1 <0>         0.1544
     49 H30         4.4082   -1.8127   -4.2724 H         1 <0>         0.1237
     50 H31         4.2737   -4.0901   -3.5780 H         1 <0>         0.4396
     51 H32         2.7533   -4.2365   -4.1958 H         1 <0>         0.4433
     52 H33         4.5249   -0.1774   -3.5849 H         1 <0>         0.4130
     53 H34         4.0304   -3.9753   -5.2036 H         1 <0>         0.4502
@<TRIPOS>BOND
     1    1    2 1
     2    1   23 1
     3    1   24 1
     4    1   25 1
     5    2    3 1
     6    2    4 1
     7    2    5 1
     8    3   26 1
     9    3   27 1
    10    3   28 1
    11    4   29 1
    12    4   30 1
    13    4   31 1
    14    5    6 1
    15    5   13 1
    16    5    7 1
    17    7    8 1
    18    7   32 1
    19    7   33 1
    20    8    9 1
    21    8   34 1
    22    8   35 1
    23    9   10 1
    24    9   11 1
    25    9   21 1
    26   11   12 1
    27   11   13 1
    28   11   14 1
    29   13   36 1
    30   13   37 1
    31   14   19 1
    32   14   15 1
    33   14   52 1
    34   15   16 1
    35   15   38 1
    36   15   39 1
    37   16   17 1
    38   16   40 1
    39   16   41 1
    40   17   18 1
    41   17   20 1
    42   17   42 1
    43   18   19 1
    44   18   43 1
    45   18   44 1
    46   19   45 1
    47   19   46 1
    48   20   47 1
    49   21   22 1
    50   21   48 1
    51   21   49 1
    52   22   50 1
    53   22   51 1
    54   22   53 1
@<TRIPOS>MOLECULE
ZINC43118259
   44    45     0     0     0
SMALL
USER_CHARGES

@<TRIPOS>ATOM
      1 C1         -1.9068    1.3643   -1.5383 C.3       1 <0>        -0.1775
      2 C2         -2.0829   -0.1393   -1.3166 C.3       1 <0>        -0.1427
      3 C3         -1.4842   -0.5289    0.0364 C.3       1 <0>         0.0140
      4 H1         -0.4515   -0.1842    0.0895 H         1 <0>         0.1734
      5 C4         -1.5226   -2.0505    0.1920 C.3       1 <0>         0.0750
      6 H2         -0.9389   -2.5120   -0.6045 H         1 <0>         0.1879
      7 C5         -2.9496   -2.5279    0.1102 C.2       1 <0>        -0.1715
      8 C6         -3.4414   -3.0714   -1.0617 C.2       1 <0>        -0.1651
      9 C7         -4.7296   -3.4912   -1.1018 C.2       1 <0>        -0.1268
     10 S1         -5.2905   -3.1202    0.5520 S.3       1 <0>         0.2164
     11 C8         -3.7685   -2.4360    1.1865 C.2       1 <0>        -0.2710
     12 N1         -0.9551   -2.4241    1.4944 N.4       1 <0>        -0.3897
     13 C9          0.4092   -1.8935    1.6023 C.3       1 <0>        -0.0274
     14 C10         0.9755   -2.2100    2.9882 C.3       1 <0>        -0.1457
     15 C11         0.9990   -3.7279    3.1895 C.3       1 <0>        -0.1345
     16 C12        -0.4170   -4.2799    3.0013 C.3       1 <0>        -0.1082
     17 H3         -1.0743   -3.8642    3.7649 H         1 <0>         0.1019
     18 C13        -0.9317   -3.8867    1.6149 C.3       1 <0>        -0.0036
     19 C14        -0.3915   -5.8048    3.1242 C.3       1 <0>         0.0827
     20 O1         -0.0179   -6.1692    4.4545 O.3       1 <0>        -0.5671
     21 N2         -2.2642    0.0934    1.1145 N.4       1 <0>        -0.6495
     22 H4         -2.3334    1.6418   -2.5022 H         1 <0>         0.0976
     23 H5         -2.4163    1.9107   -0.7446 H         1 <0>         0.0568
     24 H6         -0.8453    1.6115   -1.5260 H         1 <0>         0.0792
     25 H7         -3.1444   -0.3865   -1.3289 H         1 <0>         0.1036
     26 H8         -1.5734   -0.6857   -2.1103 H         1 <0>         0.1258
     27 H9         -2.8088   -3.1599   -1.9326 H         1 <0>         0.1559
     28 H10        -5.2753   -3.9346   -1.9215 H         1 <0>         0.2090
     29 H11        -3.5557   -2.0484    2.1718 H         1 <0>         0.1859
     30 H12         1.0384   -2.3525    0.8397 H         1 <0>         0.1494
     31 H13         0.3913   -0.8136    1.4556 H         1 <0>         0.1254
     32 H14         1.9891   -1.8168    3.0657 H         1 <0>         0.1260
     33 H15         0.3471   -1.7513    3.7516 H         1 <0>         0.0897
     34 H16         1.6675   -4.1823    2.4583 H         1 <0>         0.0874
     35 H17         1.3485   -3.9567    4.1963 H         1 <0>         0.1102
     36 H18        -1.9396   -4.2783    1.4775 H         1 <0>         0.1398
     37 H19        -0.2739   -4.3032    0.8520 H         1 <0>         0.1429
     38 H20        -1.3813   -6.2038    2.9026 H         1 <0>         0.0576
     39 H21         0.3316   -6.2141    2.4187 H         1 <0>         0.0602
     40 H22         0.0189   -7.1237    4.6052 H         1 <0>         0.4027
     41 H23        -1.8693   -0.1636    2.0068 H         1 <0>         0.4219
     42 H24        -2.2389    1.0968    1.0119 H         1 <0>         0.4564
     43 H25        -3.2201   -0.2257    1.0653 H         1 <0>         0.4414
     44 H26        -1.5241   -2.0359    2.2318 H         1 <0>         0.4043
@<TRIPOS>BOND
     1    1    2 1
     2    1   22 1
     3    1   23 1
     4    1   24 1
     5    2    3 1
     6    2   25 1
     7    2   26 1
     8    3    4 1
     9    3    5 1
    10    3   21 1
    11    5    6 1
    12    5    7 1
    13    5   12 1
    14    7   11 2
    15    7    8 1
    16    8    9 2
    17    8   27 1
    18    9   10 1
    19    9   28 1
    20   10   11 1
    21   11   29 1
    22   12   18 1
    23   12   13 1
    24   12   44 1
    25   13   14 1
    26   13   30 1
    27   13   31 1
    28   14   15 1
    29   14   32 1
    30   14   33 1
    31   15   16 1
    32   15   34 1
    33   15   35 1
    34   16   17 1
    35   16   18 1
    36   16   19 1
    37   18   36 1
    38   18   37 1
    39   19   20 1
    40   19   38 1
    41   19   39 1
    42   20   40 1
    43   21   41 1
    44   21   42 1
    45   21   43 1
@<TRIPOS>MOLECULE
ZINC51818564
   52    52     0     0     0
SMALL
USER_CHARGES

@<TRIPOS>ATOM
      1 C1         -0.7340    1.6896    0.4391 C.3       1 <0>        -0.1926
      2 C2         -0.4310    0.1914    0.3715 C.3       1 <0>         0.0837
      3 H1          0.2716   -0.0009   -0.4393 H         1 <0>         0.0750
      4 C3         -1.7274   -0.5802    0.1169 C.3       1 <0>        -0.0133
      5 N1         -1.4164   -1.9969   -0.1159 N.4       1 <0>        -0.3857
      6 C4         -0.8858   -2.5909    1.1185 C.3       1 <0>        -0.0583
      7 C5         -2.6386   -2.7074   -0.5152 C.3       1 <0>         0.0332
      8 H2         -3.3825   -2.6241    0.2771 H         1 <0>         0.1583
      9 C6         -2.3146   -4.1829   -0.7576 C.3       1 <0>        -0.1537
     10 C7         -3.5876   -4.9228   -1.1735 C.3       1 <0>        -0.0704
     11 H3         -4.3315   -4.8396   -0.3813 H         1 <0>         0.0921
     12 C8         -4.1402   -4.3041   -2.4591 C.3       1 <0>        -0.1401
     13 C9         -4.4641   -2.8286   -2.2167 C.3       1 <0>        -0.1289
     14 C10        -3.1912   -2.0886   -1.8008 C.3       1 <0>        -0.1358
     15 H4         -3.4219   -1.0374   -1.6281 H         1 <0>         0.1203
     16 C11        -2.1469   -2.2055   -2.9129 C.3       1 <0>        -0.0309
     17 N2         -2.6283   -1.5068   -4.1120 N.4       1 <0>        -0.6345
     18 C12        -3.2636   -6.3984   -1.4159 C.3       1 <0>        -0.0611
     19 C13        -2.7110   -7.0171   -0.1303 C.3       1 <0>        -0.1528
     20 C14        -4.5366   -7.1383   -1.8318 C.3       1 <0>        -0.1522
     21 C15        -2.2193   -6.5152   -2.5280 C.3       1 <0>        -0.1523
     22 O1          0.1418   -0.2350    1.6093 O.3       1 <0>        -0.5666
     23 H5          0.1895    2.2393    0.6205 H         1 <0>         0.0868
     24 H6         -1.1710    2.0148   -0.5050 H         1 <0>         0.0749
     25 H7         -1.4366    1.8819    1.2500 H         1 <0>         0.0814
     26 H8         -2.3807   -0.4894    0.9847 H         1 <0>         0.1472
     27 H9         -2.2285   -0.1695   -0.7596 H         1 <0>         0.1347
     28 H10         0.0924   -2.1625    1.3366 H         1 <0>         0.1509
     29 H11        -1.5663   -2.3820    1.9439 H         1 <0>         0.1270
     30 H12        -0.7899   -3.6692    0.9907 H         1 <0>         0.1224
     31 H13        -1.5706   -4.2661   -1.5499 H         1 <0>         0.0899
     32 H14        -1.9209   -4.6237    0.1583 H         1 <0>         0.1091
     33 H15        -3.3962   -4.3874   -3.2514 H         1 <0>         0.0701
     34 H16        -5.0470   -4.8313   -2.7554 H         1 <0>         0.1006
     35 H17        -4.8578   -2.3878   -3.1326 H         1 <0>         0.0836
     36 H18        -5.2081   -2.7453   -1.4244 H         1 <0>         0.1058
     37 H19        -1.2111   -1.7555   -2.5813 H         1 <0>         0.1243
     38 H20        -1.9815   -3.2572   -3.1469 H         1 <0>         0.1570
     39 H21        -2.7814   -0.5333   -3.8954 H         1 <0>         0.4392
     40 H22        -1.9396   -1.5839   -4.8454 H         1 <0>         0.4497
     41 H23        -3.4550   -6.9338    0.6619 H         1 <0>         0.0623
     42 H24        -2.4802   -8.0683   -0.3030 H         1 <0>         0.0682
     43 H25        -1.8041   -6.4899    0.1660 H         1 <0>         0.0527
     44 H26        -4.9302   -6.6976   -2.7477 H         1 <0>         0.0591
     45 H27        -4.3058   -8.1895   -2.0045 H         1 <0>         0.0670
     46 H28        -5.2805   -7.0551   -1.0396 H         1 <0>         0.0620
     47 H29        -1.3125   -5.9881   -2.2317 H         1 <0>         0.0512
     48 H30        -1.9886   -7.5664   -2.7007 H         1 <0>         0.0692
     49 H31        -2.6130   -6.0745   -3.4439 H         1 <0>         0.0559
     50 H32         0.9682    0.2134    1.8354 H         1 <0>         0.4101
     51 H33        -3.4945   -1.9234   -4.4190 H         1 <0>         0.4430
     52 H34        -0.7277   -2.0740   -0.8492 H         1 <0>         0.4109
@<TRIPOS>BOND
     1    1    2 1
     2    1   23 1
     3    1   24 1
     4    1   25 1
     5    2    3 1
     6    2    4 1
     7    2   22 1
     8    4    5 1
     9    4   26 1
    10    4   27 1
    11    5    6 1
    12    5    7 1
    13    5   52 1
    14    6   28 1
    15    6   29 1
    16    6   30 1
    17    7    8 1
    18    7   14 1
    19    7    9 1
    20    9   10 1
    21    9   31 1
    22    9   32 1
    23   10   11 1
    24   10   12 1
    25   10   18 1
    26   12   13 1
    27   12   33 1
    28   12   34 1
    29   13   14 1
    30   13   35 1
    31   13   36 1
    32   14   15 1
    33   14   16 1
    34   16   17 1
    35   16   37 1
    36   16   38 1
    37   17   39 1
    38   17   40 1
    39   17   51 1
    40   18   19 1
    41   18   20 1
    42   18   21 1
    43   19   41 1
    44   19   42 1
    45   19   43 1
    46   20   44 1
    47   20   45 1
    48   20   46 1
    49   21   47 1
    50   21   48 1
    51   21   49 1
    52   22   50 1
@<TRIPOS>MOLECULE
ZINC55139282
   48    50     0     0     0
SMALL
USER_CHARGES

@<TRIPOS>ATOM
      1 C1         -0.0187    1.5258    0.0104 C.3       1 <0>        -0.1185
      2 C2          1.4167    2.0553   -0.0004 C.3       1 <0>        -0.1342
      3 C3          2.1328    1.5619   -1.2592 C.3       1 <0>        -0.0662
      4 H1          3.1554    1.9392   -1.2670 H         1 <0>         0.1031
      5 C4          2.1536    0.0321   -1.2676 C.3       1 <0>        -0.1408
      6 C5          0.7182   -0.4975   -1.2568 C.3       1 <0>         0.0227
      7 H2          0.1910   -0.1364   -2.1398 H         1 <0>         0.1382
      8 C6          0.0021   -0.0041    0.0020 C.3       1 <0>        -0.1454
      9 N1          0.7381   -1.9663   -1.2649 N.4       1 <0>        -0.6378
     10 C7          1.3929    2.0688   -2.4988 C.3       1 <0>        -0.1493
     11 C8          1.4782    3.5723   -2.5550 C.2       1 <0>         0.5183
     12 O1          2.0724    4.1788   -1.6889 O.2       1 <0>        -0.5099
     13 N2          0.8942    4.2430   -3.5677 N.am      1 <0>        -0.7297
     14 C9          0.9772    5.7046   -3.6223 C.3       1 <0>         0.1379
     15 H3          1.9343    6.0468   -3.2287 H         1 <0>         0.1264
     16 C10        -0.1883    6.3417   -2.8382 C.3       1 <0>        -0.1535
     17 C11        -0.5322    7.6170   -3.6256 C.3       1 <0>        -0.0104
     18 N3          0.0373    7.4800   -4.9718 N.4       1 <0>        -0.3869
     19 C12         0.7786    6.2027   -5.0660 C.3       1 <0>         0.0158
     20 H4          1.7280    6.3184   -5.5888 H         1 <0>         0.1615
     21 C13        -0.1847    5.2302   -5.7907 C.3       1 <0>        -0.1458
     22 C14        -0.9098    6.1736   -6.7848 C.3       1 <0>        -0.1379
     23 C15        -1.0303    7.4923   -5.9850 C.3       1 <0>        -0.0125
     24 H5         -0.5289    1.8773    0.9072 H         1 <0>         0.0872
     25 H6         -0.5459    1.8868   -0.8726 H         1 <0>         0.0679
     26 H7          1.4019    3.1452    0.0056 H         1 <0>         0.0954
     27 H8          1.9439    1.6943    0.8826 H         1 <0>         0.0761
     28 H9          2.6638   -0.3194   -2.1644 H         1 <0>         0.0919
     29 H10         2.6808   -0.3290   -0.3846 H         1 <0>         0.0976
     30 H11         0.5293   -0.3651    0.8851 H         1 <0>         0.0922
     31 H12        -1.0205   -0.3814    0.0098 H         1 <0>         0.0898
     32 H13         1.2261   -2.3006   -0.4474 H         1 <0>         0.4361
     33 H14        -0.2085   -2.3156   -1.2577 H         1 <0>         0.4378
     34 H15         1.8497    1.6452   -3.3932 H         1 <0>         0.1038
     35 H16         0.3471    1.7659   -2.4467 H         1 <0>         0.0995
     36 H17         0.4190    3.7580   -4.2604 H         1 <0>         0.4073
     37 H18        -1.0442    5.6671   -2.8143 H         1 <0>         0.1000
     38 H19         0.1271    6.5934   -1.8257 H         1 <0>         0.1187
     39 H20        -1.6144    7.7292   -3.6922 H         1 <0>         0.1365
     40 H21        -0.1002    8.4855   -3.1285 H         1 <0>         0.1376
     41 H22         0.3702    4.4571   -6.3223 H         1 <0>         0.1187
     42 H23        -0.8912    4.7872   -5.0888 H         1 <0>         0.0988
     43 H24        -0.3130    6.3169   -7.6856 H         1 <0>         0.1048
     44 H25        -1.8979    5.7860   -7.0332 H         1 <0>         0.1156
     45 H26        -2.0036    7.5500   -5.4979 H         1 <0>         0.1339
     46 H27        -0.8967    8.3420   -6.6546 H         1 <0>         0.1379
     47 H28         1.2104   -2.2917   -2.0950 H         1 <0>         0.4368
     48 H29         0.6778    8.2399   -5.1466 H         1 <0>         0.4328
@<TRIPOS>BOND
     1    1    8 1
     2    1    2 1
     3    1   24 1
     4    1   25 1
     5    2    3 1
     6    2   26 1
     7    2   27 1
     8    3    4 1
     9    3    5 1
    10    3   10 1
    11    5    6 1
    12    5   28 1
    13    5   29 1
    14    6    7 1
    15    6    8 1
    16    6    9 1
    17    8   30 1
    18    8   31 1
    19    9   32 1
    20    9   33 1
    21    9   47 1
    22   10   11 1
    23   10   34 1
    24   10   35 1
    25   11   12 2
    26   11   13 am
    27   13   14 1
    28   13   36 1
    29   14   15 1
    30   14   19 1
    31   14   16 1
    32   16   17 1
    33   16   37 1
    34   16   38 1
    35   17   18 1
    36   17   39 1
    37   17   40 1
    38   18   23 1
    39   18   19 1
    40   18   48 1
    41   19   20 1
    42   19   21 1
    43   21   22 1
    44   21   41 1
    45   21   42 1
    46   22   23 1
    47   22   43 1
    48   22   44 1
    49   23   45 1
    50   23   46 1
@<TRIPOS>MOLECULE
ZINC63196196
   41    42     0     0     0
SMALL
USER_CHARGES

@<TRIPOS>ATOM
      1 C1          1.2912   -0.5554    1.0944 C.3       1 <0>        -0.1859
      2 C2          0.4015    0.0219   -0.0083 C.3       1 <0>         0.0086
      3 H1          0.3703    1.1078    0.0812 H         1 <0>         0.1609
      4 C3          0.9710   -0.3609   -1.3758 C.3       1 <0>        -0.0167
      5 H2          1.9834    0.0320   -1.4702 H         1 <0>         0.2190
      6 C4          1.0019   -1.8852   -1.5062 C.3       1 <0>        -0.1519
      7 C5          1.5728   -2.2634   -2.8760 C.3       1 <0>        -0.1330
      8 C6          0.7276   -1.6043   -3.9699 C.3       1 <0>        -0.1474
      9 C7          0.7069   -0.0904   -3.7482 C.3       1 <0>        -0.0383
     10 N1          0.1260    0.2067   -2.4333 N.4       1 <0>        -0.3727
     11 C8          0.0358    1.6623   -2.2577 C.3       1 <0>         0.0123
     12 H3         -0.4131    1.8945   -1.2920 H         1 <0>         0.1370
     13 C9         -0.8050    2.2806   -3.3937 C.3       1 <0>        -0.1512
     14 C10        -0.1025    3.6274   -3.6966 C.3       1 <0>        -0.1229
     15 C11         1.3975    3.2719   -3.5456 C.3       1 <0>        -0.1631
     16 C12         1.4364    2.2925   -2.3530 C.3       1 <0>         0.0869
     17 H4          1.6668    2.8312   -1.4339 H         1 <0>         0.1049
     18 O1          2.4152    1.2774   -2.5845 O.3       1 <0>        -0.5679
     19 N2         -0.9574   -0.5197    0.1252 N.4       1 <0>        -0.6498
     20 H5          1.2381   -1.6439    1.0716 H         1 <0>         0.0970
     21 H6          2.3216   -0.2385    0.9331 H         1 <0>         0.1214
     22 H7          0.9479   -0.1951    2.0641 H         1 <0>         0.1059
     23 H8          1.6310   -2.3050   -0.7213 H         1 <0>         0.1283
     24 H9         -0.0100   -2.2791   -1.4123 H         1 <0>         0.0752
     25 H10         2.6025   -1.9140   -2.9509 H         1 <0>         0.0945
     26 H11         1.5444   -3.3463   -2.9963 H         1 <0>         0.1028
     27 H12         1.1606   -1.8233   -4.9460 H         1 <0>         0.1212
     28 H13        -0.2900   -1.9924   -3.9271 H         1 <0>         0.0823
     29 H14         1.7249    0.2967   -3.7915 H         1 <0>         0.1831
     30 H15         0.1062    0.3820   -4.5255 H         1 <0>         0.1334
     31 H16        -0.7905    1.6366   -4.2730 H         1 <0>         0.1010
     32 H17        -1.8290    2.4508   -3.0612 H         1 <0>         0.1055
     33 H18        -0.3210    3.9572   -4.7122 H         1 <0>         0.1005
     34 H19        -0.3943    4.3870   -2.9713 H         1 <0>         0.0898
     35 H20         1.7677    2.7880   -4.4494 H         1 <0>         0.0945
     36 H21         1.9809    4.1656   -3.3240 H         1 <0>         0.0992
     37 H22         3.3198    1.6119   -2.6543 H         1 <0>         0.4162
     38 H23        -1.3330   -0.2673    1.0270 H         1 <0>         0.4570
     39 H24        -1.5442   -0.1390   -0.6020 H         1 <0>         0.4229
     40 H25        -0.7979   -0.1948   -2.3760 H         1 <0>         0.3965
     41 H26        -0.9285   -1.5249    0.0423 H         1 <0>         0.4428
@<TRIPOS>BOND
     1    1    2 1
     2    1   20 1
     3    1   21 1
     4    1   22 1
     5    2    3 1
     6    2    4 1
     7    2   19 1
     8    4    5 1
     9    4   10 1
    10    4    6 1
    11    6    7 1
    12    6   23 1
    13    6   24 1
    14    7    8 1
    15    7   25 1
    16    7   26 1
    17    8    9 1
    18    8   27 1
    19    8   28 1
    20    9   10 1
    21    9   29 1
    22    9   30 1
    23   10   11 1
    24   10   40 1
    25   11   12 1
    26   11   16 1
    27   11   13 1
    28   13   14 1
    29   13   31 1
    30   13   32 1
    31   14   15 1
    32   14   33 1
    33   14   34 1
    34   15   16 1
    35   15   35 1
    36   15   36 1
    37   16   17 1
    38   16   18 1
    39   18   37 1
    40   19   38 1
    41   19   39 1
    42   19   41 1
@<TRIPOS>MOLECULE
ZINC20707705
   54    57     0     0     0
SMALL
USER_CHARGES
(3aS,4S,9bS)-4-(2-hydroxyphenyl)-N-(3-methoxypropyl)-3a,4,5,9b-tetrahydro-3H-cyclopenta[c]quinoline-8-carboxamide
@<TRIPOS>ATOM
      1 C1        -12.5770    7.4790    3.3182 C.3       1 <0>         0.0285
      2 O1        -11.3592    6.8262    3.6828 O.3       1 <0>        -0.3924
      3 C2        -10.6214    6.3105    2.5730 C.3       1 <0>         0.0618
      4 C3         -9.3441    5.6368    3.0785 C.3       1 <0>        -0.1311
      5 C4         -8.5541    5.0846    1.8903 C.3       1 <0>         0.1253
      6 N1         -7.3310    4.4396    2.3744 N.am      1 <0>        -0.7409
      7 C5         -6.4737    3.8778    1.4992 C.2       1 <0>         0.5669
      8 O2         -6.7154    3.9063    0.3079 O.2       1 <0>        -0.5493
      9 C6         -5.2422    3.2283    1.9867 C.ar      1 <0>        -0.1976
     10 C7         -4.9607    3.1935    3.3558 C.ar      1 <0>        -0.0388
     11 C8         -3.8088    2.5941    3.8057 C.ar      1 <0>        -0.2056
     12 C9         -2.9135    2.0170    2.9075 C.ar      1 <0>         0.2538
     13 C10        -3.1889    2.0559    1.5386 C.ar      1 <0>        -0.1618
     14 C11        -4.3504    2.6450    1.0823 C.ar      1 <0>        -0.0075
     15 C12        -2.2344    1.3974    0.6201 C.3       1 <0>        -0.0132
     16 H1         -2.7059    0.4059    0.5517 H         1 <0>         0.0966
     17 C13        -2.0879    1.8201   -0.7963 C.2       1 <0>        -0.1678
     18 C14        -0.8274    1.6296   -1.1673 C.2       1 <0>        -0.1814
     19 C15        -0.0127    1.0858    0.0080 C.3       1 <0>        -0.0756
     20 C16        -0.8071    1.6184    1.2079 C.3       1 <0>        -0.0713
     21 H2         -0.4366    2.6037    1.5273 H         1 <0>         0.0991
     22 C17        -0.7652    0.8002    2.4860 C.3       1 <0>         0.2126
     23 H3         -1.0174   -0.2575    2.3198 H         1 <0>         0.0813
     24 N2         -1.7462    1.4310    3.3953 N.pl3     1 <0>        -0.7477
     25 C18         0.6146    0.8482    3.0900 C.ar      1 <0>        -0.1399
     26 C19         0.8789    1.7023    4.1434 C.ar      1 <0>        -0.0755
     27 C20         2.1442    1.7462    4.6984 C.ar      1 <0>        -0.1602
     28 C21         3.1486    0.9362    4.2009 C.ar      1 <0>        -0.0776
     29 C22         2.8897    0.0813    3.1474 C.ar      1 <0>        -0.2120
     30 C23         1.6189    0.0309    2.5925 C.ar      1 <0>         0.1719
     31 O3          1.3600   -0.8141    1.5602 O.3       1 <0>        -0.5031
     32 H4        -13.0821    7.8453    4.2241 H         1 <0>         0.0888
     33 H5        -13.2324    6.7669    2.7954 H         1 <0>         0.0432
     34 H6        -12.3538    8.3273    2.6544 H         1 <0>         0.0432
     35 H7        -11.2360    5.5740    2.0346 H         1 <0>         0.0537
     36 H8        -10.3572    7.1343    1.8937 H         1 <0>         0.0537
     37 H9         -8.7295    6.3733    3.6169 H         1 <0>         0.0793
     38 H10        -9.6082    4.8130    3.7578 H         1 <0>         0.0793
     39 H11        -9.1686    4.3481    1.3519 H         1 <0>         0.0683
     40 H12        -8.2900    5.9084    1.2109 H         1 <0>         0.0683
     41 H13        -7.1124    4.4138    3.4521 H         1 <0>         0.4185
     42 H14        -5.6485    3.6381    4.0598 H         1 <0>         0.1224
     43 H15        -3.5955    2.5705    4.8642 H         1 <0>         0.1250
     44 H16        -4.5645    2.6690    0.0239 H         1 <0>         0.1322
     45 H17        -2.8156    2.2311   -1.5115 H         1 <0>         0.1320
     46 H18        -0.5160    1.8613   -2.1966 H         1 <0>         0.1284
     47 H19         0.0141   -0.0128   -0.0416 H         1 <0>         0.0928
     48 H20         1.0129    1.4803   -0.0431 H         1 <0>         0.0656
     49 H21        -1.5618    1.4441    4.4797 H         1 <0>         0.4191
     50 H22         0.0962    2.3359    4.5337 H         1 <0>         0.1285
     51 H23         2.3488    2.4145    5.5218 H         1 <0>         0.1240
     52 H24         4.1363    0.9724    4.6363 H         1 <0>         0.1243
     53 H25         3.6745   -0.5508    2.7590 H         1 <0>         0.1281
     54 H26         2.1571   -1.4618    1.1664 H         1 <0>         0.4337
@<TRIPOS>BOND
     1    1    2 1
     2    1   32 1
     3    1   33 1
     4    1   34 1
     5    2    3 1
     6    3    4 1
     7    3   35 1
     8    3   36 1
     9    4    5 1
    10    4   37 1
    11    4   38 1
    12    5    6 1
    13    5   39 1
    14    5   40 1
    15    6    7 am
    16    6   41 1
    17    7    8 2
    18    7    9 1
    19    9   14 ar
    20    9   10 ar
    21   10   11 ar
    22   10   42 1
    23   11   12 ar
    24   11   43 1
    25   12   24 1
    26   12   13 ar
    27   13   14 ar
    28   13   15 1
    29   14   44 1
    30   15   16 1
    31   15   20 1
    32   15   17 1
    33   17   18 2
    34   17   45 1
    35   18   19 1
    36   18   46 1
    37   19   20 1
    38   19   47 1
    39   19   48 1
    40   20   21 1
    41   20   22 1
    42   22   23 1
    43   22   24 1
    44   22   25 1
    45   24   49 1
    46   25   30 ar
    47   25   26 ar
    48   26   27 ar
    49   26   50 1
    50   27   28 ar
    51   27   51 1
    52   28   29 ar
    53   28   52 1
    54   29   30 ar
    55   29   53 1
    56   30   31 1
    57   31   54 1
@<TRIPOS>MOLECULE
ZINC45082702
   39    40     0     0     0
SMALL
USER_CHARGES

@<TRIPOS>ATOM
      1 C1          0.8651    1.4450   -0.0364 C.3       1 <0>        -0.1131
      2 C2          0.6491   -0.0464   -0.0321 C.ar      1 <0>        -0.1119
      3 C3          0.6478   -0.7470   -1.2244 C.ar      1 <0>        -0.0644
      4 C4          0.4497   -2.1141   -1.2237 C.ar      1 <0>        -0.2024
      5 C5          0.2523   -2.7848   -0.0255 C.ar      1 <0>         0.1458
      6 C6          0.2544   -2.0798    1.1700 C.ar      1 <0>        -0.1157
      7 C7          0.4583   -0.7126    1.1641 C.ar      1 <0>        -0.0525
      8 Br1        -0.0149   -2.9896    2.8058 Br        1 <0>        -0.0266
      9 O1          0.0567   -4.1298   -0.0224 O.3       1 <0>        -0.2695
     10 C8         -0.0525   -4.7724   -1.2941 C.3       1 <0>         0.0795
     11 H1         -0.5624   -4.1099   -1.9934 H         1 <0>         0.1102
     12 C9          1.3460   -5.0948   -1.8243 C.3       1 <0>        -0.1822
     13 C10        -0.8401   -6.0487   -1.1460 C.2       1 <0>         0.5231
     14 O2         -1.2660   -6.3757   -0.0585 O.2       1 <0>        -0.4831
     15 N1         -1.0712   -6.8266   -2.2220 N.am      1 <0>        -0.5476
     16 N2         -1.8034   -8.0131   -2.0844 N.pl3     1 <0>        -0.4665
     17 C11        -2.0345   -8.7911   -3.1604 C.2       1 <0>         0.5653
     18 S1         -2.9293  -10.2409   -2.9922 S.2       1 <0>        -0.5775
     19 N3         -1.5612   -8.4276   -4.3688 N.pl3     1 <0>        -0.6582
     20 C12        -1.8124   -9.2733   -5.5385 C.3       1 <0>         0.0700
     21 C13        -0.6456   -9.5171   -6.4976 C.3       1 <0>        -0.1818
     22 C14        -1.7984   -8.6007   -6.9126 C.3       1 <0>        -0.1816
     23 H2          1.9312    1.6580    0.0427 H         1 <0>         0.0737
     24 H3          0.4785    1.8655   -0.9647 H         1 <0>         0.0697
     25 H4          0.3419    1.8903    0.8098 H         1 <0>         0.0699
     26 H5          0.8015   -0.2247   -2.1571 H         1 <0>         0.1344
     27 H6          0.4481   -2.6604   -2.1553 H         1 <0>         0.1374
     28 H7          0.4642   -0.1638    2.0943 H         1 <0>         0.1417
     29 H8          1.2627   -5.5850   -2.7943 H         1 <0>         0.0783
     30 H9          1.9157   -4.1717   -1.9314 H         1 <0>         0.0870
     31 H10         1.8559   -5.7574   -1.1250 H         1 <0>         0.0837
     32 H11        -0.7306   -6.5651   -3.0918 H         1 <0>         0.4195
     33 H12        -2.1441   -8.2746   -1.2146 H         1 <0>         0.4615
     34 H13        -1.0543   -7.6062   -4.4642 H         1 <0>         0.3911
     35 H14        -2.5175  -10.0903   -5.3852 H         1 <0>         0.1710
     36 H15         0.3089   -9.0483   -6.2584 H         1 <0>         0.0975
     37 H16        -0.5828  -10.4947   -6.9755 H         1 <0>         0.1129
     38 H17        -2.4939   -8.9754   -7.6635 H         1 <0>         0.1138
     39 H18        -1.6022   -7.5290   -6.9464 H         1 <0>         0.0973
@<TRIPOS>BOND
     1    1    2 1
     2    1   23 1
     3    1   24 1
     4    1   25 1
     5    2    7 ar
     6    2    3 ar
     7    3    4 ar
     8    3   26 1
     9    4    5 ar
    10    4   27 1
    11    5    6 ar
    12    5    9 1
    13    6    7 ar
    14    6    8 1
    15    7   28 1
    16    9   10 1
    17   10   11 1
    18   10   12 1
    19   10   13 1
    20   12   29 1
    21   12   30 1
    22   12   31 1
    23   13   14 2
    24   13   15 am
    25   15   16 1
    26   15   32 1
    27   16   17 1
    28   16   33 1
    29   17   18 2
    30   17   19 1
    31   19   20 1
    32   19   34 1
    33   20   22 1
    34   20   21 1
    35   20   35 1
    36   21   22 1
    37   21   36 1
    38   21   37 1
    39   22   38 1
    40   22   39 1
@<TRIPOS>MOLECULE
ZINC60414928
   42    43     0     0     0
SMALL
USER_CHARGES

@<TRIPOS>ATOM
      1 C1         -0.0167    1.3788    0.0096 C.ar      1 <0>        -0.1235
      2 C2          1.1695    2.0899    0.0021 C.ar      1 <0>        -0.0997
      3 C3          2.3774    1.4209   -0.0134 C.ar      1 <0>        -0.0996
      4 C4          2.4001    0.0314   -0.0211 C.ar      1 <0>        -0.0877
      5 C5          1.2062   -0.6798   -0.0130 C.ar      1 <0>        -0.1348
      6 C6          0.0021   -0.0041    0.0020 C.ar      1 <0>        -0.0999
      7 S1          3.9390   -0.8266   -0.0415 S.3       1 <0>        -0.1001
      8 C7          3.4652   -2.5776   -0.0459 C.3       1 <0>        -0.0759
      9 C8          4.7054   -3.4335   -0.0632 C.ar      1 <0>        -0.0445
     10 C9          5.2630   -3.8136   -1.2711 C.ar      1 <0>        -0.1035
     11 C10         6.3983   -4.5971   -1.2939 C.ar      1 <0>        -0.0494
     12 C11         6.9843   -5.0064   -0.0951 C.ar      1 <0>        -0.1237
     13 C12         6.4167   -4.6194    1.1199 C.ar      1 <0>        -0.0850
     14 C13         5.2845   -3.8311    1.1288 C.ar      1 <0>        -0.1035
     15 C14         8.2007   -5.8465   -0.1121 C.2       1 <0>         0.5661
     16 O1          8.6927   -6.1823   -1.1717 O.2       1 <0>        -0.5193
     17 N1          8.7642   -6.2401    1.0473 N.am      1 <0>        -0.5295
     18 N2          9.9169   -7.0362    1.0312 N.am      1 <0>        -0.5221
     19 C15        10.4803   -7.4297    2.1905 C.2       1 <0>         0.7235
     20 O2         11.4807   -8.1207    2.1765 O.2       1 <0>        -0.5568
     21 N3          9.9349   -7.0574    3.3654 N.am      1 <0>        -0.7447
     22 C16        10.5473   -7.4852    4.6256 C.3       1 <0>         0.0950
     23 C17         9.7383   -6.9307    5.7999 C.3       1 <0>         0.4483
     24 F1          8.4268   -7.4129    5.7315 F         1 <0>        -0.1774
     25 F2         10.3231   -7.3392    7.0033 F         1 <0>        -0.1675
     26 F3          9.7251   -5.5331    5.7386 F         1 <0>        -0.1771
     27 H1         -0.9599    1.9047    0.0260 H         1 <0>         0.1263
     28 H2          1.1511    3.1697    0.0081 H         1 <0>         0.1294
     29 H3          3.3033    1.9769   -0.0200 H         1 <0>         0.1282
     30 H4          1.2201   -1.7597   -0.0189 H         1 <0>         0.1223
     31 H5         -0.9262   -0.5561    0.0079 H         1 <0>         0.1266
     32 H6          2.8835   -2.7989    0.8489 H         1 <0>         0.1022
     33 H7          2.8651   -2.7894   -0.9309 H         1 <0>         0.1025
     34 H8          4.8084   -3.4966   -2.1980 H         1 <0>         0.1380
     35 H9          6.8325   -4.8935   -2.2374 H         1 <0>         0.1444
     36 H10         6.8653   -4.9328    2.0510 H         1 <0>         0.1266
     37 H11         4.8468   -3.5273    2.0682 H         1 <0>         0.1368
     38 H12         8.3716   -5.9721    1.8928 H         1 <0>         0.4186
     39 H13        10.3095   -7.3042    0.1856 H         1 <0>         0.4497
     40 H14         9.1368   -6.5062    3.3766 H         1 <0>         0.3978
     41 H15        10.5576   -8.5741    4.6734 H         1 <0>         0.1214
     42 H16        11.5692   -7.1095    4.6789 H         1 <0>         0.1215
@<TRIPOS>BOND
     1    1    6 ar
     2    1    2 ar
     3    1   27 1
     4    2    3 ar
     5    2   28 1
     6    3    4 ar
     7    3   29 1
     8    4    5 ar
     9    4    7 1
    10    5    6 ar
    11    5   30 1
    12    6   31 1
    13    7    8 1
    14    8    9 1
    15    8   32 1
    16    8   33 1
    17    9   14 ar
    18    9   10 ar
    19   10   11 ar
    20   10   34 1
    21   11   12 ar
    22   11   35 1
    23   12   13 ar
    24   12   15 1
    25   13   14 ar
    26   13   36 1
    27   14   37 1
    28   15   16 2
    29   15   17 am
    30   17   18 1
    31   17   38 1
    32   18   19 am
    33   18   39 1
    34   19   20 2
    35   19   21 am
    36   21   22 1
    37   21   40 1
    38   22   23 1
    39   22   41 1
    40   22   42 1
    41   23   24 1
    42   23   25 1
    43   23   26 1
@<TRIPOS>MOLECULE
ZINC66326250
   47    48     0     0     0
SMALL
USER_CHARGES

@<TRIPOS>ATOM
      1 C1         -0.0184    1.5028    0.0103 C.3       1 <0>        -0.1171
      2 C2          0.0021   -0.0041    0.0020 C.ar      1 <0>        -0.0933
      3 C3          0.0058   -0.6879   -1.2010 C.ar      1 <0>        -0.0919
      4 C4          0.0249   -2.0710   -1.2175 C.ar      1 <0>        -0.1220
      5 C5          0.0401   -2.7779   -0.0326 C.ar      1 <0>        -0.0908
      6 C6          0.0364   -2.0945    1.1841 C.ar      1 <0>        -0.1339
      7 C7          0.0228   -0.6986    1.1936 C.ar      1 <0>        -0.0586
      8 C8          0.0521   -2.8454    2.4576 C.2       1 <0>         0.5670
      9 O1          0.0490   -2.2475    3.5158 O.2       1 <0>        -0.5262
     10 N1          0.0700   -4.1930    2.4450 N.am      1 <0>        -0.7072
     11 C9          0.0855   -4.9372    3.7068 C.3       1 <0>         0.1453
     12 H1         -0.5077   -4.4045    4.4501 H         1 <0>         0.1238
     13 C10         1.5267   -5.0689    4.2035 C.3       1 <0>        -0.1030
     14 C11         2.3870   -5.7046    3.1097 C.3       1 <0>        -0.1518
     15 C12         2.0773   -3.6827    4.5443 C.3       1 <0>        -0.1415
     16 C13        -0.4977   -6.3094    3.4880 C.2       1 <0>         0.5136
     17 O2         -0.8880   -6.6338    2.3865 O.2       1 <0>        -0.5278
     18 N2         -0.5857   -7.1761    4.5164 N.am      1 <0>        -0.5145
     19 N3         -1.1279   -8.4518    4.3129 N.pl3     1 <0>        -0.5358
     20 C14        -1.2193   -9.3520    5.3811 C.ar      1 <0>         0.1801
     21 C15        -0.7783   -8.9799    6.6434 C.ar      1 <0>        -0.1483
     22 C16        -0.8697   -9.8696    7.6966 C.ar      1 <0>        -0.1033
     23 C17        -1.4007  -11.1322    7.4945 C.ar      1 <0>         0.0754
     24 C18        -1.8413  -11.5073    6.2366 C.ar      1 <0>        -0.1338
     25 C19        -1.7573  -10.6184    5.1805 C.ar      1 <0>         0.0622
     26 F1         -2.1921  -10.9820    3.9542 F         1 <0>        -0.1300
     27 F2         -1.4887  -11.9998    8.5264 F         1 <0>        -0.1327
     28 H2          1.0042    1.8801    0.0026 H         1 <0>         0.0739
     29 H3         -0.5455    1.8639   -0.8728 H         1 <0>         0.0696
     30 H4         -0.5286    1.8543    0.9071 H         1 <0>         0.0699
     31 H5         -0.0067   -0.1393   -2.1313 H         1 <0>         0.1285
     32 H6          0.0277   -2.5987   -2.1598 H         1 <0>         0.1307
     33 H7          0.0543   -3.8577   -0.0468 H         1 <0>         0.1258
     34 H8          0.0244   -0.1637    2.1318 H         1 <0>         0.1370
     35 H9          0.0725   -4.6702    1.6005 H         1 <0>         0.4110
     36 H10         1.5481   -5.6973    5.0939 H         1 <0>         0.0825
     37 H11         2.3656   -5.0762    2.2193 H         1 <0>         0.0612
     38 H12         3.4137   -5.7985    3.4635 H         1 <0>         0.0649
     39 H13         1.9947   -6.6922    2.8669 H         1 <0>         0.0533
     40 H14         2.0559   -3.0542    3.6539 H         1 <0>         0.0618
     41 H15         1.4644   -3.2297    5.3236 H         1 <0>         0.0657
     42 H16         3.1040   -3.7765    4.8981 H         1 <0>         0.0560
     43 H17        -0.2736   -6.9166    5.3974 H         1 <0>         0.4250
     44 H18        -1.4401   -8.7112    3.4319 H         1 <0>         0.4408
     45 H19        -0.3636   -7.9955    6.8023 H         1 <0>         0.1371
     46 H20        -0.5262   -9.5798    8.6787 H         1 <0>         0.1474
     47 H21        -2.2545  -12.4929    6.0811 H         1 <0>         0.1539
@<TRIPOS>BOND
     1    1    2 1
     2    1   28 1
     3    1   29 1
     4    1   30 1
     5    2    7 ar
     6    2    3 ar
     7    3    4 ar
     8    3   31 1
     9    4    5 ar
    10    4   32 1
    11    5    6 ar
    12    5   33 1
    13    6    7 ar
    14    6    8 1
    15    7   34 1
    16    8    9 2
    17    8   10 am
    18   10   11 1
    19   10   35 1
    20   11   12 1
    21   11   13 1
    22   11   16 1
    23   13   14 1
    24   13   15 1
    25   13   36 1
    26   14   37 1
    27   14   38 1
    28   14   39 1
    29   15   40 1
    30   15   41 1
    31   15   42 1
    32   16   17 2
    33   16   18 am
    34   18   19 1
    35   18   43 1
    36   19   20 1
    37   19   44 1
    38   20   25 ar
    39   20   21 ar
    40   21   22 ar
    41   21   45 1
    42   22   23 ar
    43   22   46 1
    44   23   24 ar
    45   23   27 1
    46   24   25 ar
    47   24   47 1
    48   25   26 1
@<TRIPOS>MOLECULE
ZINC67455955
   48    50     0     0     0
SMALL
USER_CHARGES

@<TRIPOS>ATOM
      1 C1         -0.0164    1.3567    0.0095 C.ar      1 <0>        -0.1137
      2 C2          1.1686    2.0905    0.0021 C.ar      1 <0>        -0.1146
      3 C3          2.3785    1.4675   -0.0131 C.ar      1 <0>        -0.1057
      4 C4          2.4375    0.0634   -0.0211 C.ar      1 <0>        -0.0508
      5 C5          3.6681   -0.6153   -0.0364 C.ar      1 <0>        -0.0885
      6 C6          3.6865   -1.9761   -0.0434 C.ar      1 <0>        -0.1145
      7 C7          2.5015   -2.7098   -0.0357 C.ar      1 <0>        -0.1080
      8 C8          1.2917   -2.0868   -0.0209 C.ar      1 <0>        -0.0984
      9 C9          1.2327   -0.6827   -0.0133 C.ar      1 <0>        -0.0499
     10 C10         0.0021   -0.0041    0.0020 C.ar      1 <0>        -0.1069
     11 C11         5.0079   -2.7004   -0.0602 C.3       1 <0>         0.1392
     12 H1          5.7871   -2.0265   -0.4161 H         1 <0>         0.1149
     13 C12         5.3488   -3.1723    1.3547 C.3       1 <0>         0.1129
     14 N1          6.6861   -3.7705    1.3610 N.am      1 <0>        -0.7423
     15 C13         7.2005   -4.2590    2.5070 C.2       1 <0>         0.7053
     16 O1          6.5546   -4.2032    3.5356 O.2       1 <0>        -0.5900
     17 N2          8.4308   -4.8093    2.5127 N.am      1 <0>        -0.7387
     18 C14         8.9899   -5.3403    3.7584 C.3       1 <0>         0.1895
     19 C15        10.3661   -5.8950    3.4950 C.ar      1 <0>        -0.1273
     20 C16        10.5435   -7.2553    3.3307 C.ar      1 <0>        -0.0660
     21 C17        11.8059   -7.7648    3.0896 C.ar      1 <0>        -0.1439
     22 C18        12.8939   -6.9147    3.0118 C.ar      1 <0>        -0.0722
     23 C19        12.7217   -5.5540    3.1750 C.ar      1 <0>        -0.1929
     24 C20        11.4550   -5.0397    3.4118 C.ar      1 <0>         0.1228
     25 O2         11.2821   -3.7007    3.5671 O.3       1 <0>        -0.3144
     26 C21        12.4481   -2.8803    3.4688 C.3       1 <0>         0.4112
     27 F1         13.3679   -3.2573    4.4532 F         1 <0>        -0.1967
     28 F2         13.0259   -3.0407    2.2048 F         1 <0>        -0.1975
     29 O3          4.9208   -3.8301   -0.9311 O.3       1 <0>        -0.5500
     30 H2         -0.9633    1.8757    0.0259 H         1 <0>         0.1246
     31 H3          1.1260    3.1696    0.0083 H         1 <0>         0.1247
     32 H4          3.2884    2.0491   -0.0194 H         1 <0>         0.1281
     33 H5          4.5943   -0.0599   -0.0428 H         1 <0>         0.1296
     34 H6          2.5441   -3.7890   -0.0419 H         1 <0>         0.1223
     35 H7          0.3816   -2.6684   -0.0154 H         1 <0>         0.1303
     36 H8         -0.9241   -0.5595    0.0082 H         1 <0>         0.1283
     37 H9          5.3280   -2.3219    2.0362 H         1 <0>         0.0782
     38 H10         4.6176   -3.9138    1.6765 H         1 <0>         0.0722
     39 H11         7.2014   -3.8150    0.5403 H         1 <0>         0.4002
     40 H12         8.9460   -4.8538    1.6921 H         1 <0>         0.3968
     41 H13         9.0553   -4.5413    4.4969 H         1 <0>         0.0787
     42 H14         8.3449   -6.1332    4.1372 H         1 <0>         0.0776
     43 H15         9.6954   -7.9212    3.3910 H         1 <0>         0.1364
     44 H16        11.9426   -8.8285    2.9621 H         1 <0>         0.1312
     45 H17        13.8791   -7.3152    2.8237 H         1 <0>         0.1314
     46 H18        13.5717   -4.8906    3.1142 H         1 <0>         0.1355
     47 H19        12.1706   -1.8359    3.6116 H         1 <0>         0.1828
     48 H20         4.2460   -4.4734   -0.6745 H         1 <0>         0.3779
@<TRIPOS>BOND
     1    1   10 ar
     2    1    2 ar
     3    1   30 1
     4    2    3 ar
     5    2   31 1
     6    3    4 ar
     7    3   32 1
     8    4    9 ar
     9    4    5 ar
    10    5    6 ar
    11    5   33 1
    12    6    7 ar
    13    6   11 1
    14    7    8 ar
    15    7   34 1
    16    8    9 ar
    17    8   35 1
    18    9   10 ar
    19   10   36 1
    20   11   12 1
    21   11   13 1
    22   11   29 1
    23   13   14 1
    24   13   37 1
    25   13   38 1
    26   14   15 am
    27   14   39 1
    28   15   16 2
    29   15   17 am
    30   17   18 1
    31   17   40 1
    32   18   19 1
    33   18   41 1
    34   18   42 1
    35   19   24 ar
    36   19   20 ar
    37   20   21 ar
    38   20   43 1
    39   21   22 ar
    40   21   44 1
    41   22   23 ar
    42   22   45 1
    43   23   24 ar
    44   23   46 1
    45   24   25 1
    46   25   26 1
    47   26   27 1
    48   26   28 1
    49   26   47 1
    50   29   48 1
@<TRIPOS>MOLECULE
ZINC36954862
   39    40     0     0     0
SMALL
USER_CHARGES

@<TRIPOS>ATOM
      1 C1         -0.0187    1.5258    0.0104 C.3       1 <0>        -0.1814
      2 C2          0.0021   -0.0041    0.0020 C.3       1 <0>         0.0688
      3 H1         -1.0205   -0.3814    0.0098 H         1 <0>         0.1572
      4 C3          0.7074   -0.4901   -1.2379 C.ar      1 <0>        -0.0862
      5 C4          2.0889   -0.5108   -1.2839 C.ar      1 <0>        -0.1446
      6 C5          2.7359   -0.9566   -2.4212 C.ar      1 <0>        -0.0018
      7 C6          2.0015   -1.3821   -3.5123 C.ar      1 <0>        -0.6547
      8 C7          0.6201   -1.3622   -3.4659 C.ar      1 <0>        -0.0025
      9 C8         -0.0269   -0.9205   -2.3270 C.ar      1 <0>        -0.1075
     10 S1          2.8263   -1.9492   -4.9624 S.o2      1 <0>         2.6969
     11 O1          1.9163   -1.7781   -6.0404 O.2       1 <0>        -0.9492
     12 O2          4.1173   -1.3557   -4.9538 O.2       1 <0>        -0.9505
     13 N1          3.0541   -3.5804   -4.7898 N.pl3     1 <0>        -1.2468
     14 N2          0.7126   -0.4907    1.1921 N.4       1 <0>        -0.5118
     15 C9         -0.0398   -0.1189    2.3978 C.3       1 <0>         0.1315
     16 H2         -0.2092    0.9579    2.4027 H         1 <0>         0.1623
     17 C10        -1.3855   -0.8468    2.4039 C.3       1 <0>        -0.1826
     18 C11         0.7479   -0.5091    3.6218 C.2       1 <0>        -0.2555
     19 C12         0.9023    0.1644    4.7875 C.2       1 <0>        -0.0672
     20 C13         1.6806   -0.3921    5.7857 C.2       1 <0>        -0.1539
     21 C14         2.2664   -1.5961    5.5678 C.2       1 <0>        -0.0727
     22 S2          1.7132   -1.9820    3.9148 S.3       1 <0>         0.1041
     23 Cl1         3.2842   -2.5240    6.6246 Cl        1 <0>         0.0532
     24 H3          1.0039    1.9031    0.0027 H         1 <0>         0.0875
     25 H4         -0.5459    1.8868   -0.8726 H         1 <0>         0.1133
     26 H5         -0.5289    1.8773    0.9072 H         1 <0>         0.0904
     27 H6          2.6626   -0.1783   -0.4315 H         1 <0>         0.1324
     28 H7          3.8152   -0.9721   -2.4575 H         1 <0>         0.1572
     29 H8          0.0463   -1.6944   -4.3185 H         1 <0>         0.1589
     30 H9         -1.1062   -0.9085   -2.2894 H         1 <0>         0.1485
     31 H10         2.7450   -4.0312   -3.9885 H         1 <0>         0.4160
     32 H11         3.4967   -4.0851   -5.4901 H         1 <0>         0.4276
     33 H12         0.7982   -1.4950    1.1455 H         1 <0>         0.4279
     34 H13        -1.9438   -0.5709    3.2985 H         1 <0>         0.1142
     35 H14        -1.9553   -0.5646    1.5185 H         1 <0>         0.0908
     36 H15        -1.2162   -1.9236    2.3989 H         1 <0>         0.0862
     37 H16         0.4248    1.1219    4.9345 H         1 <0>         0.1547
     38 H17         1.8203    0.1239    6.7241 H         1 <0>         0.1603
     39 H18         1.6317   -0.0761    1.2281 H         1 <0>         0.4291
@<TRIPOS>BOND
     1    1    2 1
     2    1   24 1
     3    1   25 1
     4    1   26 1
     5    2    3 1
     6    2    4 1
     7    2   14 1
     8    4    9 ar
     9    4    5 ar
    10    5    6 ar
    11    5   27 1
    12    6    7 ar
    13    6   28 1
    14    7    8 ar
    15    7   10 1
    16    8    9 ar
    17    8   29 1
    18    9   30 1
    19   10   11 2
    20   10   12 2
    21   10   13 1
    22   13   31 1
    23   13   32 1
    24   14   15 1
    25   14   33 1
    26   14   39 1
    27   15   16 1
    28   15   17 1
    29   15   18 1
    30   17   34 1
    31   17   35 1
    32   17   36 1
    33   18   22 1
    34   18   19 2
    35   19   20 1
    36   19   37 1
    37   20   21 2
    38   20   38 1
    39   21   22 1
    40   21   23 1
@<TRIPOS>MOLECULE
ZINC44361835
   34    35     0     0     0
SMALL
USER_CHARGES

@<TRIPOS>ATOM
      1 C1          0.4424    1.8896    0.1510 C.3       1 <0>        -0.1580
      2 C2          0.5917    0.3726    0.0194 C.3       1 <0>         0.0594
      3 O1          0.9838   -0.1785    1.2782 O.3       1 <0>        -0.3229
      4 C3          1.1587   -1.5082    1.3335 C.2       1 <0>         0.4598
      5 O2          0.9847   -2.1819    0.3457 O.2       1 <0>        -0.4832
      6 C4          1.5721   -2.1607    2.6274 C.3       1 <0>         0.0376
      7 H1          2.3132   -1.5375    3.1280 H         1 <0>         0.1798
      8 C5          0.3480   -2.3226    3.5309 C.3       1 <0>        -0.0691
      9 C6          0.7775   -2.8796    4.8637 C.2       1 <0>        -0.1858
     10 C7          1.2682   -2.1128    6.0113 C.ar      1 <0>        -0.0737
     11 C8          1.5420   -3.0540    7.0203 C.ar      1 <0>         0.1176
     12 C9          2.0293   -2.6180    8.2475 C.ar      1 <0>        -0.1001
     13 C10         2.2396   -1.2739    8.4657 C.ar      1 <0>        -0.0768
     14 C11         1.9695   -0.3443    7.4713 C.ar      1 <0>        -0.0874
     15 C12         1.4870   -0.7536    6.2478 C.ar      1 <0>        -0.0582
     16 Br1         1.1217    0.5174    4.8961 Br        1 <0>        -0.0297
     17 N1          1.2359   -4.2971    6.5105 N.pl3     1 <0>        -0.5683
     18 H2          1.3283   -5.1346    6.9910 H         1 <0>         0.4332
     19 C13         0.7774   -4.1735    5.2269 C.2       1 <0>         0.1311
     20 Cl1         0.2743   -5.4926    4.2167 Cl        1 <0>         0.0031
     21 N2          2.1517   -3.4810    2.3467 N.4       1 <0>        -0.6230
     22 H3          1.3946    2.3232    0.4566 H         1 <0>         0.0720
     23 H4          0.1434    2.3099   -0.8093 H         1 <0>         0.0926
     24 H5         -0.3170    2.1164    0.8992 H         1 <0>         0.0719
     25 H6         -0.3605   -0.0610   -0.2863 H         1 <0>         0.0815
     26 H7          1.3511    0.1457   -0.7289 H         1 <0>         0.0807
     27 H8         -0.1257   -1.3520    3.6783 H         1 <0>         0.1432
     28 H9         -0.3610   -3.0056    3.0630 H         1 <0>         0.1116
     29 H10         2.2424   -3.3323    9.0290 H         1 <0>         0.1399
     30 H11         2.6182   -0.9403    9.4206 H         1 <0>         0.1491
     31 H12         2.1388    0.7060    7.6577 H         1 <0>         0.1462
     32 H13         2.8936   -3.3856    1.6696 H         1 <0>         0.4438
     33 H14         2.5225   -3.8736    3.1990 H         1 <0>         0.4433
     34 H15         1.4369   -4.0907    1.9788 H         1 <0>         0.4390
@<TRIPOS>BOND
     1    1    2 1
     2    1   22 1
     3    1   23 1
     4    1   24 1
     5    2    3 1
     6    2   25 1
     7    2   26 1
     8    3    4 1
     9    4    5 2
    10    4    6 1
    11    6    7 1
    12    6    8 1
    13    6   21 1
    14    8    9 1
    15    8   27 1
    16    8   28 1
    17    9   19 2
    18    9   10 1
    19   10   15 ar
    20   10   11 ar
    21   11   12 ar
    22   11   17 1
    23   12   13 ar
    24   12   29 1
    25   13   14 ar
    26   13   30 1
    27   14   15 ar
    28   14   31 1
    29   15   16 1
    30   17   18 1
    31   17   19 1
    32   19   20 1
    33   21   32 1
    34   21   33 1
    35   21   34 1
@<TRIPOS>MOLECULE
ZINC55403525
   48    50     0     0     0
SMALL
USER_CHARGES

@<TRIPOS>ATOM
      1 C1         -0.1133    1.4397    0.1451 C.3       1 <0>        -0.1237
      2 C2         -0.0702   -0.0664    0.1168 C.ar      1 <0>        -0.0523
      3 C3         -0.6559   -0.7537   -0.9305 C.ar      1 <0>        -0.1095
      4 C4         -0.6187   -2.1343   -0.9604 C.ar      1 <0>        -0.0931
      5 C5          0.0081   -2.8331    0.0623 C.ar      1 <0>         0.0846
      6 C6          0.5968   -2.1401    1.1142 C.ar      1 <0>         0.0881
      7 C7          0.5599   -0.7576    1.1351 C.ar      1 <0>        -0.1335
      8 F1          1.2075   -2.8158    2.1120 F         1 <0>        -0.1335
      9 N1          0.0469   -4.2327    0.0348 N.am      1 <0>        -0.6378
     10 C8         -0.0494   -4.8866   -1.1398 C.2       1 <0>         0.5046
     11 O1         -0.0651   -4.2644   -2.1808 O.2       1 <0>        -0.5059
     12 C9         -0.1377   -6.3909   -1.1597 C.3       1 <0>         0.0083
     13 H1         -1.0213   -6.7103   -0.6072 H         1 <0>         0.1730
     14 C10         1.1132   -6.9838   -0.5080 C.3       1 <0>        -0.1883
     15 N2         -0.2338   -6.8574   -2.5493 N.4       1 <0>        -0.4961
     16 C11        -0.4400   -8.3118   -2.5644 C.3       1 <0>         0.0802
     17 C12        -0.4201   -8.8072   -3.9875 C.2       1 <0>        -0.3129
     18 C13        -1.4957   -9.1786   -4.7156 C.2       1 <0>         0.1267
     19 N3         -1.0615   -9.5584   -5.9366 N.pl3     1 <0>        -0.4508
     20 H2         -1.6180   -9.8733   -6.6660 H         1 <0>         0.4566
     21 N4          0.3318   -9.4177   -5.9672 N.2       1 <0>        -0.2522
     22 C14         0.7225   -8.9595   -4.7968 C.2       1 <0>         0.1422
     23 C15         2.1206   -8.6603   -4.3987 C.ar      1 <0>        -0.0618
     24 C16         2.5963   -9.0718   -3.1554 C.ar      1 <0>        -0.0812
     25 C17         3.8968   -8.7915   -2.7893 C.ar      1 <0>        -0.1525
     26 C18         4.7291   -8.1016   -3.6557 C.ar      1 <0>         0.1256
     27 C19         4.2602   -7.6906   -4.8929 C.ar      1 <0>        -0.1472
     28 C20         2.9629   -7.9722   -5.2695 C.ar      1 <0>        -0.0528
     29 F2          6.0015   -7.8284   -3.2929 F         1 <0>        -0.1264
     30 H3          0.7602    1.8379   -0.3712 H         1 <0>         0.0813
     31 H4         -1.0189    1.7866   -0.3525 H         1 <0>         0.0762
     32 H5         -0.1124    1.7838    1.1793 H         1 <0>         0.0752
     33 H6         -1.1436   -0.2102   -1.7262 H         1 <0>         0.1394
     34 H7         -1.0772   -2.6697   -1.7786 H         1 <0>         0.1527
     35 H8          1.0200   -0.2178    1.9496 H         1 <0>         0.1471
     36 H9          0.1431   -4.7315    0.8611 H         1 <0>         0.4218
     37 H10         1.1845   -6.6377    0.5231 H         1 <0>         0.1131
     38 H11         1.0493   -8.0719   -0.5224 H         1 <0>         0.1025
     39 H12         1.9968   -6.6644   -1.0605 H         1 <0>         0.0936
     40 H13        -1.0116   -6.4027   -3.0037 H         1 <0>         0.4343
     41 H14         0.3556   -8.7975   -1.9994 H         1 <0>         0.1388
     42 H15        -1.4031   -8.5469   -2.1112 H         1 <0>         0.1438
     43 H16        -2.5222   -9.1731   -4.3801 H         1 <0>         0.1948
     44 H17         1.9479   -9.6090   -2.4791 H         1 <0>         0.1371
     45 H18         4.2664   -9.1100   -1.8257 H         1 <0>         0.1476
     46 H19         4.9123   -7.1530   -5.5653 H         1 <0>         0.1482
     47 H20         2.5995   -7.6553   -6.2359 H         1 <0>         0.1422
     48 H21         0.6195   -6.6336   -3.0390 H         1 <0>         0.4318
@<TRIPOS>BOND
     1    1    2 1
     2    1   30 1
     3    1   31 1
     4    1   32 1
     5    2    7 ar
     6    2    3 ar
     7    3    4 ar
     8    3   33 1
     9    4    5 ar
    10    4   34 1
    11    5    6 ar
    12    5    9 1
    13    6    7 ar
    14    6    8 1
    15    7   35 1
    16    9   10 am
    17    9   36 1
    18   10   11 2
    19   10   12 1
    20   12   13 1
    21   12   14 1
    22   12   15 1
    23   14   37 1
    24   14   38 1
    25   14   39 1
    26   15   16 1
    27   15   40 1
    28   15   48 1
    29   16   17 1
    30   16   41 1
    31   16   42 1
    32   17   22 1
    33   17   18 2
    34   18   19 1
    35   18   43 1
    36   19   20 1
    37   19   21 1
    38   21   22 2
    39   22   23 1
    40   23   28 ar
    41   23   24 ar
    42   24   25 ar
    43   24   44 1
    44   25   26 ar
    45   25   45 1
    46   26   27 ar
    47   26   29 1
    48   27   28 ar
    49   27   46 1
    50   28   47 1
@<TRIPOS>MOLECULE
ZINC63244334
   58    59     0     0     0
SMALL
USER_CHARGES

@<TRIPOS>ATOM
      1 C1         -0.1563    1.6388    0.0821 C.3       1 <0>        -0.1414
      2 C2         -0.2223    0.1333    0.0722 C.ar      1 <0>         0.0481
      3 C3         -0.4330   -0.5418   -1.1126 C.ar      1 <0>        -0.1481
      4 C4         -0.4939   -1.9238   -1.1234 C.ar      1 <0>         0.0592
      5 C5         -0.3441   -2.6383    0.0522 C.ar      1 <0>        -0.6947
      6 C6         -0.1324   -1.9757    1.2433 C.ar      1 <0>         0.0221
      7 C7         -0.0647   -0.5815    1.2604 C.ar      1 <0>        -0.1823
      8 C8          0.1676    0.1351    2.5326 C.2       1 <0>         0.5721
      9 O1          0.1591    1.3503    2.5560 O.2       1 <0>        -0.5038
     10 N1          0.3888   -0.5592    3.6664 N.am      1 <0>        -0.7513
     11 C9          0.6189    0.1508    4.9270 C.3       1 <0>         0.1200
     12 C10        -0.7206    0.4041    5.6216 C.3       1 <0>        -0.1675
     13 C11         1.5116   -0.6978    5.8347 C.3       1 <0>        -0.0219
     14 N2          2.7580   -1.0242    5.1291 N.4       1 <0>        -0.3862
     15 C12         3.5450   -1.9628    5.9380 C.3       1 <0>        -0.0079
     16 C13         4.8060   -2.3690    5.1722 C.3       1 <0>        -0.1142
     17 C14         5.6424   -1.1203    4.8781 C.3       1 <0>        -0.1289
     18 C15         4.7876   -0.1174    4.0981 C.3       1 <0>        -0.1114
     19 C16         3.5273    0.2054    4.9036 C.3       1 <0>        -0.0102
     20 C17         4.3912   -0.7233    2.7503 C.3       1 <0>        -0.1709
     21 C18         5.6255   -3.3452    6.0186 C.3       1 <0>        -0.1508
     22 S1         -0.4244   -4.3983    0.0275 S.o2      1 <0>         2.7036
     23 O2          0.4343   -4.8294   -1.0194 O.2       1 <0>        -0.9496
     24 O3         -0.2639   -4.8310    1.3715 O.2       1 <0>        -0.9690
     25 N3         -1.9636   -4.8119   -0.4222 N.pl3     1 <0>        -1.2485
     26 C19        -0.7248   -2.6544   -2.4210 C.3       1 <0>        -0.1597
     27 H1          0.8861    1.9569    0.0615 H         1 <0>         0.0858
     28 H2         -0.6732    2.0309   -0.7938 H         1 <0>         0.0726
     29 H3         -0.6340    2.0175    0.9857 H         1 <0>         0.1083
     30 H4         -0.5511    0.0099   -2.0335 H         1 <0>         0.1482
     31 H5         -0.0156   -2.5345    2.1601 H         1 <0>         0.1422
     32 H6          0.3956   -1.5290    3.6477 H         1 <0>         0.4012
     33 H7          1.1085    1.1031    4.7235 H         1 <0>         0.1188
     34 H8         -1.2102   -0.5482    5.8251 H         1 <0>         0.0719
     35 H9         -0.5493    0.9324    6.5595 H         1 <0>         0.0816
     36 H10        -1.3565    1.0087    4.9749 H         1 <0>         0.0829
     37 H11         1.7430   -0.1393    6.7417 H         1 <0>         0.1500
     38 H12         0.9912   -1.6187    6.0979 H         1 <0>         0.1398
     39 H13         3.8282   -1.4847    6.8758 H         1 <0>         0.1327
     40 H14         2.9473   -2.8495    6.1492 H         1 <0>         0.1319
     41 H15         4.5240   -2.8474    4.2343 H         1 <0>         0.0951
     42 H16         5.9677   -0.6702    5.8160 H         1 <0>         0.0845
     43 H17         6.5134   -1.3967    4.2838 H         1 <0>         0.0958
     44 H18         5.3582    0.7966    3.9332 H         1 <0>         0.1204
     45 H19         2.9164    0.9194    4.3512 H         1 <0>         0.1303
     46 H20         3.8108    0.6373    5.8635 H         1 <0>         0.1337
     47 H21         3.8190   -1.6361    2.9164 H         1 <0>         0.0488
     48 H22         3.7827   -0.0090    2.1956 H         1 <0>         0.0714
     49 H23         5.2894   -0.9566    2.1785 H         1 <0>         0.0868
     50 H24         5.0283   -4.2319    6.2309 H         1 <0>         0.0692
     51 H25         6.5236   -3.6341    5.4726 H         1 <0>         0.0781
     52 H26         5.9086   -2.8649    6.9552 H         1 <0>         0.0678
     53 H27        -2.6159   -4.1196   -0.6122 H         1 <0>         0.4187
     54 H28        -2.2128   -5.7465   -0.4956 H         1 <0>         0.4266
     55 H29         0.2343   -2.8740   -2.8900 H         1 <0>         0.1096
     56 H30        -1.2548   -3.5863   -2.2240 H         1 <0>         0.0772
     57 H31        -1.3211   -2.0314   -3.0877 H         1 <0>         0.0943
     58 H32         2.5390   -1.4503    4.2411 H         1 <0>         0.4171
@<TRIPOS>BOND
     1    1    2 1
     2    1   27 1
     3    1   28 1
     4    1   29 1
     5    2    7 ar
     6    2    3 ar
     7    3    4 ar
     8    3   30 1
     9    4    5 ar
    10    4   26 1
    11    5    6 ar
    12    5   22 1
    13    6    7 ar
    14    6   31 1
    15    7    8 1
    16    8    9 2
    17    8   10 am
    18   10   11 1
    19   10   32 1
    20   11   12 1
    21   11   13 1
    22   11   33 1
    23   12   34 1
    24   12   35 1
    25   12   36 1
    26   13   14 1
    27   13   37 1
    28   13   38 1
    29   14   19 1
    30   14   15 1
    31   14   58 1
    32   15   16 1
    33   15   39 1
    34   15   40 1
    35   16   17 1
    36   16   21 1
    37   16   41 1
    38   17   18 1
    39   17   42 1
    40   17   43 1
    41   18   19 1
    42   18   20 1
    43   18   44 1
    44   19   45 1
    45   19   46 1
    46   20   47 1
    47   20   48 1
    48   20   49 1
    49   21   50 1
    50   21   51 1
    51   21   52 1
    52   22   23 2
    53   22   24 2
    54   22   25 1
    55   25   53 1
    56   25   54 1
    57   26   55 1
    58   26   56 1
    59   26   57 1
@<TRIPOS>MOLECULE
ZINC67637555
   59    60     0     0     0
SMALL
USER_CHARGES

@<TRIPOS>ATOM
      1 C1         -0.0179    1.4726    0.7496 C.3       1 <0>        -0.1208
      2 C2          0.0025   -0.0305    0.6422 C.ar      1 <0>        -0.0618
      3 C3          0.0048   -0.6346   -0.6011 C.ar      1 <0>        -0.1302
      4 C4          0.0234   -2.0133   -0.6996 C.ar      1 <0>        -0.0550
      5 C5          0.0403   -2.7879    0.4452 C.ar      1 <0>        -0.1278
      6 C6          0.0390   -2.1837    1.6886 C.ar      1 <0>        -0.0552
      7 C7          0.0247   -0.8049    1.7870 C.ar      1 <0>        -0.1304
      8 C8          0.0570   -3.0281    2.9367 C.3       1 <0>        -0.1206
      9 C9          0.0597   -4.2909    0.3379 C.3       1 <0>         0.1767
     10 N1          1.4471   -4.7596    0.2951 N.am      1 <0>        -0.7323
     11 C10         1.7104   -6.0779    0.1993 C.2       1 <0>         0.7052
     12 O1          0.7964   -6.8782    0.1483 O.2       1 <0>        -0.5851
     13 N2          2.9867   -6.5091    0.1600 N.am      1 <0>        -0.7465
     14 C11         3.2729   -7.9421    0.0558 C.3       1 <0>         0.1127
     15 C12         4.7872   -8.1592    0.0302 C.3       1 <0>         0.0717
     16 H1          5.2261   -7.7668    0.9475 H         1 <0>         0.1300
     17 C13         5.0861   -9.6558   -0.0786 C.3       1 <0>        -0.0430
     18 N3          6.5400   -9.8653   -0.0878 N.4       1 <0>        -0.3778
     19 C14         6.8271  -11.2814   -0.3463 C.3       1 <0>        -0.0067
     20 C15         8.3402  -11.4906   -0.4375 C.3       1 <0>        -0.1435
     21 C16         8.9887  -11.0697    0.8844 C.3       1 <0>        -0.1045
     22 C17         8.6211   -9.6129    1.1810 C.3       1 <0>        -0.1421
     23 C18         7.0976   -9.4733    1.2122 C.3       1 <0>        -0.0116
     24 C19        10.5090  -11.2012    0.7731 C.3       1 <0>        -0.1544
     25 O2          5.3469   -7.4786   -1.0948 O.3       1 <0>        -0.5509
     26 C20         0.0249   -2.6720   -2.0551 C.3       1 <0>        -0.1207
     27 H2          1.0047    1.8496    0.7655 H         1 <0>         0.0737
     28 H3         -0.5460    1.8909   -0.1072 H         1 <0>         0.0697
     29 H4         -0.5270    1.7644    1.6681 H         1 <0>         0.0696
     30 H5         -0.0084   -0.0295   -1.4956 H         1 <0>         0.1247
     31 H6          0.0274   -0.3328    2.7584 H         1 <0>         0.1246
     32 H7          1.0888   -3.2180    3.2320 H         1 <0>         0.0699
     33 H8         -0.4596   -2.5015    3.7391 H         1 <0>         0.0702
     34 H9         -0.4454   -3.9756    2.7416 H         1 <0>         0.0709
     35 H10        -0.4434   -4.7235    1.2027 H         1 <0>         0.0795
     36 H11        -0.4553   -4.5968   -0.5728 H         1 <0>         0.0795
     37 H12         2.1762   -4.1211    0.3358 H         1 <0>         0.3984
     38 H13         3.7158   -5.8706    0.2006 H         1 <0>         0.4025
     39 H14         2.8459   -8.4612    0.9139 H         1 <0>         0.0862
     40 H15         2.8340   -8.3345   -0.8615 H         1 <0>         0.0805
     41 H16         4.6493  -10.1764    0.7737 H         1 <0>         0.1446
     42 H17         4.6569  -10.0458   -1.0015 H         1 <0>         0.1396
     43 H18         6.4253  -11.8873    0.4658 H         1 <0>         0.1294
     44 H19         6.3622  -11.5803   -1.2858 H         1 <0>         0.1307
     45 H20         8.5513  -12.5429   -0.6277 H         1 <0>         0.1133
     46 H21         8.7431  -10.8853   -1.2495 H         1 <0>         0.0887
     47 H22         8.6244  -11.7086    1.6889 H         1 <0>         0.0886
     48 H23         9.0330   -9.3232    2.1477 H         1 <0>         0.1126
     49 H24         9.0298   -8.9687    0.4026 H         1 <0>         0.0892
     50 H25         6.8324   -8.4374    1.4233 H         1 <0>         0.1297
     51 H26         6.6900  -10.1178    1.9911 H         1 <0>         0.1295
     52 H27        10.8715  -10.5588   -0.0294 H         1 <0>         0.0622
     53 H28        10.9695  -10.9014    1.7145 H         1 <0>         0.0677
     54 H29        10.7691  -12.2370    0.5551 H         1 <0>         0.0677
     55 H30         5.0014   -7.7774   -1.9471 H         1 <0>         0.3936
     56 H31         1.0528   -2.8164   -2.3877 H         1 <0>         0.0701
     57 H32        -0.4751   -3.6383   -1.9900 H         1 <0>         0.0708
     58 H33        -0.5019   -2.0375   -2.7679 H         1 <0>         0.0701
     59 H34         6.9554   -9.3019   -0.8145 H         1 <0>         0.4268
@<TRIPOS>BOND
     1    1    2 1
     2    1   27 1
     3    1   28 1
     4    1   29 1
     5    2    7 ar
     6    2    3 ar
     7    3    4 ar
     8    3   30 1
     9    4    5 ar
    10    4   26 1
    11    5    6 ar
    12    5    9 1
    13    6    7 ar
    14    6    8 1
    15    7   31 1
    16    8   32 1
    17    8   33 1
    18    8   34 1
    19    9   10 1
    20    9   35 1
    21    9   36 1
    22   10   11 am
    23   10   37 1
    24   11   12 2
    25   11   13 am
    26   13   14 1
    27   13   38 1
    28   14   15 1
    29   14   39 1
    30   14   40 1
    31   15   16 1
    32   15   17 1
    33   15   25 1
    34   17   18 1
    35   17   41 1
    36   17   42 1
    37   18   23 1
    38   18   19 1
    39   18   59 1
    40   19   20 1
    41   19   43 1
    42   19   44 1
    43   20   21 1
    44   20   45 1
    45   20   46 1
    46   21   22 1
    47   21   24 1
    48   21   47 1
    49   22   23 1
    50   22   48 1
    51   22   49 1
    52   23   50 1
    53   23   51 1
    54   24   52 1
    55   24   53 1
    56   24   54 1
    57   25   55 1
    58   26   56 1
    59   26   57 1
    60   26   58 1
@<TRIPOS>MOLECULE
ZINC40920245
   38    39     0     0     0
SMALL
USER_CHARGES

@<TRIPOS>ATOM
      1 C1         -0.0187    1.5258    0.0104 C.3       1 <0>        -0.1800
      2 C2          0.0021   -0.0041    0.0020 C.3       1 <0>         0.0507
      3 C3          0.7421   -0.5109    1.2415 C.3       1 <0>        -0.1720
      4 C4         -1.4117   -0.5257    0.0127 C.2       1 <0>         0.5051
      5 O1         -1.9390   -0.8271    1.0625 O.2       1 <0>        -0.4540
      6 N1         -2.0902   -0.6573   -1.1443 N.am      1 <0>        -0.7341
      7 C5         -3.4646   -1.1643   -1.1339 C.3       1 <0>         0.1346
      8 H1         -3.9765   -0.8138   -0.2377 H         1 <0>         0.1360
      9 C6         -3.4468   -2.6945   -1.1490 C.3       1 <0>        -0.0208
     10 N2         -4.1379   -3.1924   -2.3407 N.4       1 <0>        -0.3757
     11 C7         -5.5405   -2.7700   -2.3376 C.3       1 <0>        -0.0131
     12 C8         -5.6279   -1.2424   -2.3619 C.3       1 <0>        -0.1373
     13 C9         -4.2071   -0.6629   -2.3795 C.3       1 <0>        -0.1101
     14 C10        -3.4845   -1.1992   -3.6223 C.3       1 <0>        -0.1387
     15 C11        -3.4635   -2.7335   -3.5574 C.3       1 <0>        -0.0114
     16 N3          0.6897   -0.4778   -1.2066 N.4       1 <0>        -0.6352
     17 H2          1.0039    1.9031    0.0027 H         1 <0>         0.1078
     18 H3         -0.5459    1.8868   -0.8726 H         1 <0>         0.0884
     19 H4         -0.5289    1.8773    0.9072 H         1 <0>         0.1195
     20 H5          0.2319   -0.1594    2.1383 H         1 <0>         0.1225
     21 H6          0.7568   -1.6008    1.2356 H         1 <0>         0.0888
     22 H7          1.7647   -0.1336    1.2338 H         1 <0>         0.1026
     23 H8         -1.6686   -0.4162   -1.9840 H         1 <0>         0.3978
     24 H9         -2.4145   -3.0441   -1.1570 H         1 <0>         0.1289
     25 H10        -3.9475   -3.0708   -0.2569 H         1 <0>         0.1466
     26 H11        -6.0421   -3.1750   -3.2165 H         1 <0>         0.1396
     27 H12        -6.0294   -3.1460   -1.4389 H         1 <0>         0.1377
     28 H13        -6.1644   -0.9214   -3.2548 H         1 <0>         0.1143
     29 H14        -6.1521   -0.8923   -1.4727 H         1 <0>         0.1089
     30 H15        -4.2416    0.4266   -2.3855 H         1 <0>         0.1295
     31 H16        -4.0123   -0.8761   -4.5196 H         1 <0>         0.1161
     32 H17        -2.4621   -0.8217   -3.6416 H         1 <0>         0.0872
     33 H18        -2.4309   -3.0825   -3.5521 H         1 <0>         0.1274
     34 H19        -3.9760   -3.1388   -4.4298 H         1 <0>         0.1404
     35 H20         1.6363   -0.1286   -1.2138 H         1 <0>         0.4517
     36 H21         0.7033   -1.4867   -1.2121 H         1 <0>         0.4379
     37 H22        -4.1158   -4.2010   -2.3246 H         1 <0>         0.4344
     38 H23         0.2017   -0.1436   -2.0240 H         1 <0>         0.4279
@<TRIPOS>BOND
     1    1    2 1
     2    1   17 1
     3    1   18 1
     4    1   19 1
     5    2    3 1
     6    2    4 1
     7    2   16 1
     8    3   20 1
     9    3   21 1
    10    3   22 1
    11    4    5 2
    12    4    6 am
    13    6    7 1
    14    6   23 1
    15    7    8 1
    16    7   13 1
    17    7    9 1
    18    9   10 1
    19    9   24 1
    20    9   25 1
    21   10   15 1
    22   10   11 1
    23   10   37 1
    24   11   12 1
    25   11   26 1
    26   11   27 1
    27   12   13 1
    28   12   28 1
    29   12   29 1
    30   13   14 1
    31   13   30 1
    32   14   15 1
    33   14   31 1
    34   14   32 1
    35   15   33 1
    36   15   34 1
    37   16   35 1
    38   16   36 1
    39   16   38 1
@<TRIPOS>MOLECULE
ZINC43364306
   41    42     0     0     0
SMALL
USER_CHARGES

@<TRIPOS>ATOM
      1 C1         -0.4209    1.1398   -0.6812 C.3       1 <0>        -0.0983
      2 C2         -0.3024   -0.3449   -0.4518 C.2       1 <0>         0.0718
      3 C3         -0.3328   -1.2931   -1.4053 C.2       1 <0>        -0.2122
      4 C4         -0.1888   -2.5377   -0.7501 C.2       1 <0>        -0.0722
      5 C5         -0.0789   -2.2755    0.5646 C.2       1 <0>        -0.1855
      6 O1         -0.1426   -0.9453    0.7389 O.3       1 <0>        -0.2014
      7 C6          0.0922   -3.3002    1.6563 C.3       1 <0>         0.1261
      8 H1         -0.2338   -4.2751    1.2939 H         1 <0>         0.2010
      9 C7          1.5660   -3.3732    2.0608 C.3       1 <0>         0.0116
     10 H2          1.6888   -4.1097    2.8549 H         1 <0>         0.1768
     11 C8          2.4073   -3.7831    0.8504 C.3       1 <0>        -0.1865
     12 N1          2.0077   -2.0570    2.5410 N.4       1 <0>        -0.6456
     13 N2         -0.7166   -2.9150    2.8206 N.4       1 <0>        -0.3916
     14 C9         -0.5857   -3.9377    3.8653 C.3       1 <0>        -0.0293
     15 C10        -1.3610   -3.5023    5.1106 C.3       1 <0>        -0.1425
     16 C11        -2.8387   -3.3255    4.7493 C.3       1 <0>        -0.1798
     17 C12        -2.9572   -2.3115    3.6078 C.3       1 <0>         0.0958
     18 H3         -2.5896   -1.3417    3.9429 H         1 <0>         0.0769
     19 C13        -2.1227   -2.7911    2.4182 C.3       1 <0>        -0.0039
     20 O2         -4.3260   -2.1932    3.2149 O.3       1 <0>        -0.5458
     21 H4          0.5708    1.5632   -0.8405 H         1 <0>         0.1025
     22 H5         -1.0397    1.3235   -1.5596 H         1 <0>         0.1117
     23 H6         -0.8796    1.6067    0.1904 H         1 <0>         0.0896
     24 H7         -0.4462   -1.1343   -2.4676 H         1 <0>         0.1741
     25 H8         -0.1708   -3.5119   -1.2158 H         1 <0>         0.1715
     26 H9          2.3693   -2.9955    0.0979 H         1 <0>         0.0971
     27 H10         3.4403   -3.9386    1.1618 H         1 <0>         0.1114
     28 H11         2.0117   -4.7074    0.4292 H         1 <0>         0.1236
     29 H12         1.4529   -1.7867    3.3392 H         1 <0>         0.4234
     30 H13         2.9796   -2.1052    2.8077 H         1 <0>         0.4597
     31 H14        -0.9871   -4.8830    3.5000 H         1 <0>         0.1520
     32 H15         0.4667   -4.0647    4.1190 H         1 <0>         0.1324
     33 H16        -1.2641   -4.2638    5.8844 H         1 <0>         0.1304
     34 H17        -0.9603   -2.5571    5.4769 H         1 <0>         0.0920
     35 H18        -3.2532   -4.2822    4.4315 H         1 <0>         0.0985
     36 H19        -3.3854   -2.9610    5.6189 H         1 <0>         0.1069
     37 H20        -2.2050   -2.0715    1.6037 H         1 <0>         0.1433
     38 H21        -2.4913   -3.7608    2.0838 H         1 <0>         0.1490
     39 H22        -4.9141   -1.8958    3.9225 H         1 <0>         0.4121
     40 H23        -0.3905   -2.0292    3.1771 H         1 <0>         0.4086
     41 H24         1.8941   -1.3753    1.8059 H         1 <0>         0.4446
@<TRIPOS>BOND
     1    1    2 1
     2    1   21 1
     3    1   22 1
     4    1   23 1
     5    2    6 1
     6    2    3 2
     7    3    4 1
     8    3   24 1
     9    4    5 2
    10    4   25 1
    11    5    6 1
    12    5    7 1
    13    7    8 1
    14    7    9 1
    15    7   13 1
    16    9   10 1
    17    9   11 1
    18    9   12 1
    19   11   26 1
    20   11   27 1
    21   11   28 1
    22   12   29 1
    23   12   30 1
    24   12   41 1
    25   13   19 1
    26   13   14 1
    27   13   40 1
    28   14   15 1
    29   14   31 1
    30   14   32 1
    31   15   16 1
    32   15   33 1
    33   15   34 1
    34   16   17 1
    35   16   35 1
    36   16   36 1
    37   17   18 1
    38   17   19 1
    39   17   20 1
    40   19   37 1
    41   19   38 1
    42   20   39 1
@<TRIPOS>MOLECULE
ZINC50465303
   37    37     0     0     0
SMALL
USER_CHARGES

@<TRIPOS>ATOM
      1 C1         -0.0187    1.5258    0.0104 C.3       1 <0>        -0.1802
      2 C2          0.0021   -0.0041    0.0020 C.3       1 <0>         0.0451
      3 C3          0.7421   -0.5109    1.2415 C.3       1 <0>        -0.1795
      4 C4         -1.4333   -0.5336    0.0129 C.3       1 <0>         0.1001
      5 N1         -1.4134   -1.9985    0.0048 N.am      1 <0>        -0.7384
      6 C5         -2.5713   -2.6882    0.0122 C.2       1 <0>         0.5467
      7 O1         -3.6297   -2.0961    0.0255 O.2       1 <0>        -0.4989
      8 C6         -2.5509   -4.1950    0.0039 C.3       1 <0>        -0.1797
      9 H1         -1.7281   -4.6570    0.5494 H         1 <0>         0.1537
     10 C7         -3.0453   -4.9013   -1.2601 C.3       1 <0>        -0.1207
     11 C8         -3.8983   -4.9199    0.0108 C.3       1 <0>        -0.0374
     12 H2         -4.7995   -4.3068    0.0213 H         1 <0>         0.1952
     13 N2         -3.9839   -6.1854    0.7517 N.4       1 <0>        -0.6075
     14 N3          0.6897   -0.4778   -1.2066 N.4       1 <0>        -0.3827
     15 C9         -0.0208    0.0088   -2.3967 C.3       1 <0>        -0.0607
     16 C10         2.0678    0.0307   -1.2170 C.3       1 <0>        -0.0596
     17 H3          1.0039    1.9031    0.0027 H         1 <0>         0.0953
     18 H4         -0.5459    1.8868   -0.8726 H         1 <0>         0.0896
     19 H5         -0.5289    1.8773    0.9072 H         1 <0>         0.1120
     20 H6          0.2319   -0.1594    2.1383 H         1 <0>         0.1118
     21 H7          0.7568   -1.6008    1.2356 H         1 <0>         0.0762
     22 H8          1.7647   -0.1336    1.2338 H         1 <0>         0.0946
     23 H9         -1.9435   -0.1821    0.9097 H         1 <0>         0.1198
     24 H10        -1.9605   -0.1726   -0.8702 H         1 <0>         0.1030
     25 H11        -0.5669   -2.4720   -0.0058 H         1 <0>         0.4005
     26 H12        -3.3853   -4.2761   -2.0857 H         1 <0>         0.1423
     27 H13        -2.5480   -5.8282   -1.5459 H         1 <0>         0.1406
     28 H14        -3.7640   -6.0222    1.7228 H         1 <0>         0.4415
     29 H15        -4.9191   -6.5567    0.6764 H         1 <0>         0.4511
     30 H16        -1.0434   -0.3685   -2.3890 H         1 <0>         0.1217
     31 H17        -0.0356    1.0987   -2.3907 H         1 <0>         0.1320
     32 H18         0.4894   -0.3427   -3.2935 H         1 <0>         0.1311
     33 H19         2.5950   -0.3304   -0.3340 H         1 <0>         0.1283
     34 H20         2.5780   -0.3209   -2.1138 H         1 <0>         0.1305
     35 H21         2.0530    1.1205   -1.2110 H         1 <0>         0.1307
     36 H22         0.7033   -1.4867   -1.2121 H         1 <0>         0.4154
     37 H23        -3.3274   -6.8468    0.3648 H         1 <0>         0.4361
@<TRIPOS>BOND
     1    1    2 1
     2    1   17 1
     3    1   18 1
     4    1   19 1
     5    2    3 1
     6    2    4 1
     7    2   14 1
     8    3   20 1
     9    3   21 1
    10    3   22 1
    11    4    5 1
    12    4   23 1
    13    4   24 1
    14    5    6 am
    15    5   25 1
    16    6    7 2
    17    6    8 1
    18    8    9 1
    19    8   11 1
    20    8   10 1
    21   10   11 1
    22   10   26 1
    23   10   27 1
    24   11   12 1
    25   11   13 1
    26   13   28 1
    27   13   29 1
    28   13   37 1
    29   14   15 1
    30   14   16 1
    31   14   36 1
    32   15   30 1
    33   15   31 1
    34   15   32 1
    35   16   33 1
    36   16   34 1
    37   16   35 1
@<TRIPOS>MOLECULE
ZINC54345885
   37    38     0     0     0
SMALL
USER_CHARGES

@<TRIPOS>ATOM
      1 C1          0.0652    1.5195   -0.6549 C.3       1 <0>        -0.1953
      2 C2          0.1883   -0.0042   -0.7201 C.3       1 <0>        -0.1485
      3 H1          0.5572   -0.2972   -1.7030 H         1 <0>         0.1196
      4 C3          1.1656   -0.4833    0.3552 C.3       1 <0>        -0.0009
      5 N1          2.5101    0.0282    0.0578 N.4       1 <0>        -0.6380
      6 C4         -1.1838   -0.6374   -0.4809 C.3       1 <0>        -0.0216
      7 N2         -2.0893   -0.2733   -1.5788 N.4       1 <0>        -0.5084
      8 C5         -3.4436   -0.7557   -1.2770 C.3       1 <0>         0.0981
      9 C6         -4.4110   -0.2689   -2.3578 C.3       1 <0>        -0.1822
     10 C7         -3.8077    0.3721   -3.6092 C.3       1 <0>        -0.1839
     11 C8         -4.5258    1.2413   -2.5750 C.3       1 <0>        -0.1693
     12 C9         -3.4445   -2.2853   -1.2432 C.3       1 <0>        -0.2043
     13 C10        -4.2250   -2.9666   -0.1174 C.3       1 <0>        -0.1338
     14 C11        -2.6951   -2.9670   -0.0966 C.3       1 <0>        -0.1956
     15 H2          1.0427    1.9706   -0.8254 H         1 <0>         0.0842
     16 H3         -0.6311    1.8609   -1.4209 H         1 <0>         0.0797
     17 H4         -0.3038    1.8125    0.3280 H         1 <0>         0.0937
     18 H5          0.8437   -0.1146    1.3291 H         1 <0>         0.1476
     19 H6          1.1861   -1.5731    0.3679 H         1 <0>         0.1478
     20 H7          2.8081   -0.3131   -0.8437 H         1 <0>         0.4399
     21 H8          2.4912    1.0370    0.0460 H         1 <0>         0.4377
     22 H9         -1.0813   -1.7217   -0.4389 H         1 <0>         0.1593
     23 H10        -1.5921   -0.2743    0.4623 H         1 <0>         0.1439
     24 H11        -2.1051    0.7302   -1.6830 H         1 <0>         0.4245
     25 H12        -3.7588   -0.3706   -0.3072 H         1 <0>         0.1452
     26 H13        -5.3146   -0.8655   -2.4833 H         1 <0>         0.1524
     27 H14        -2.7216    0.4470   -3.6625 H         1 <0>         0.0848
     28 H15        -4.3142    0.1971   -4.5584 H         1 <0>         0.1263
     29 H16        -5.5048    1.6381   -2.8437 H         1 <0>         0.1246
     30 H17        -3.9122    1.8880   -1.9479 H         1 <0>         0.0986
     31 H18        -3.4311   -2.7770   -2.2159 H         1 <0>         0.1366
     32 H19        -4.7379   -2.3251    0.5992 H         1 <0>         0.1122
     33 H20        -4.7254   -3.9068   -0.3493 H         1 <0>         0.1202
     34 H21        -2.1891   -3.9074   -0.3149 H         1 <0>         0.1184
     35 H22        -2.2016   -2.3257    0.6336 H         1 <0>         0.1041
     36 H23        -1.7652   -0.6954   -2.4361 H         1 <0>         0.4314
     37 H24         3.1546   -0.2878    0.7669 H         1 <0>         0.4510
@<TRIPOS>BOND
     1    1    2 1
     2    1   15 1
     3    1   16 1
     4    1   17 1
     5    2    3 1
     6    2    4 1
     7    2    6 1
     8    4    5 1
     9    4   18 1
    10    4   19 1
    11    5   20 1
    12    5   21 1
    13    5   37 1
    14    6    7 1
    15    6   22 1
    16    6   23 1
    17    7    8 1
    18    7   24 1
    19    7   36 1
    20    8    9 1
    21    8   12 1
    22    8   25 1
    23    9   11 1
    24    9   10 1
    25    9   26 1
    26   10   11 1
    27   10   27 1
    28   10   28 1
    29   11   29 1
    30   11   30 1
    31   12   14 1
    32   12   13 1
    33   12   31 1
    34   13   14 1
    35   13   32 1
    36   13   33 1
    37   14   34 1
    38   14   35 1
@<TRIPOS>MOLECULE
ZINC61711449
   34    35     0     0     0
SMALL
USER_CHARGES

@<TRIPOS>ATOM
      1 C1         -0.0163    1.3472    0.0094 C.2       1 <0>        -0.0752
      2 C2          1.1925    2.0400    0.0016 C.2       1 <0>        -0.0744
      3 C3          2.3561    1.3188   -0.0134 C.2       1 <0>        -0.0932
      4 S1          1.7507   -0.3603   -0.0166 S.3       1 <0>         0.1774
      5 C4          0.0021   -0.0041    0.0020 C.2       1 <0>        -0.2567
      6 C5         -1.1585   -0.9653    0.0084 C.3       1 <0>         0.0945
      7 N1         -1.5494   -1.2702   -1.3745 N.4       1 <0>        -0.3897
      8 C6         -2.0807   -0.0517   -2.0215 C.3       1 <0>        -0.0066
      9 C7         -3.2215   -0.5567   -2.9397 C.3       1 <0>        -0.1827
     10 C8         -3.8355   -1.6932   -2.0805 C.3       1 <0>         0.0942
     11 H1         -4.5363   -1.2887   -1.3502 H         1 <0>         0.0981
     12 C9         -2.6039   -2.3007   -1.3763 C.3       1 <0>        -0.0114
     13 O1         -4.4772   -2.6637   -2.9102 O.3       1 <0>        -0.5457
     14 C10         1.2172    3.4717    0.0086 C.1       1 <0>        -0.0019
     15 C11         1.2374    4.6455    0.0143 C.1       1 <0>        -0.2551
     16 C12         1.2628    6.1173    0.0215 C.3       1 <0>         0.1375
     17 N2          2.6559    6.5831    0.0108 N.4       1 <0>        -0.6373
     18 H2         -0.9542    1.8822    0.0257 H         1 <0>         0.1463
     19 H3          3.3761    1.6738   -0.0212 H         1 <0>         0.2089
     20 H4         -0.8656   -1.8852    0.5144 H         1 <0>         0.1499
     21 H5         -2.0009   -0.5144    0.5330 H         1 <0>         0.1511
     22 H6         -2.4730    0.6357   -1.2720 H         1 <0>         0.1312
     23 H7         -1.3041    0.4333   -2.6130 H         1 <0>         0.1348
     24 H8         -3.9518    0.2311   -3.1244 H         1 <0>         0.1213
     25 H9         -2.8247   -0.9467   -3.8770 H         1 <0>         0.1105
     26 H10        -2.2617   -3.1805   -1.9212 H         1 <0>         0.1486
     27 H11        -2.8589   -2.5721   -0.3519 H         1 <0>         0.1456
     28 H12        -5.2118   -2.3115   -3.4313 H         1 <0>         0.4076
     29 H13         0.7470    6.4939   -0.8618 H         1 <0>         0.1585
     30 H14         0.7636    6.4849    0.9181 H         1 <0>         0.1573
     31 H15         3.1334    6.2345    0.8285 H         1 <0>         0.4371
     32 H16         3.1180    6.2428   -0.8191 H         1 <0>         0.4395
     33 H17        -0.7480   -1.6036   -1.8890 H         1 <0>         0.4311
     34 H18         2.6733    7.5919    0.0158 H         1 <0>         0.4487
@<TRIPOS>BOND
     1    1    5 2
     2    1    2 1
     3    1   18 1
     4    2    3 2
     5    2   14 1
     6    3    4 1
     7    3   19 1
     8    4    5 1
     9    5    6 1
    10    6    7 1
    11    6   20 1
    12    6   21 1
    13    7   12 1
    14    7    8 1
    15    7   33 1
    16    8    9 1
    17    8   22 1
    18    8   23 1
    19    9   10 1
    20    9   24 1
    21    9   25 1
    22   10   11 1
    23   10   12 1
    24   10   13 1
    25   12   26 1
    26   12   27 1
    27   13   28 1
    28   14   15 3
    29   15   16 1
    30   16   17 1
    31   16   29 1
    32   16   30 1
    33   17   31 1
    34   17   32 1
    35   17   34 1
@<TRIPOS>MOLECULE
ZINC37552742
   34    34     0     0     0
SMALL
USER_CHARGES

@<TRIPOS>ATOM
      1 C1         -0.0187    1.5258    0.0104 C.3       1 <0>        -0.1675
      2 C2          0.0021   -0.0041    0.0020 C.3       1 <0>         0.1858
      3 C3          0.7421   -0.5109    1.2415 C.3       1 <0>        -0.1677
      4 C4         -1.4333   -0.5336    0.0129 C.3       1 <0>        -0.1573
      5 N1          0.6878   -0.4765   -1.2033 N.am      1 <0>        -0.7251
      6 C5          1.9715   -0.1323   -1.4270 C.2       1 <0>         0.6975
      7 O1          2.5604    0.5704   -0.6285 O.2       1 <0>        -0.5115
      8 N2          2.6023   -0.5669   -2.5359 N.am      1 <0>        -0.6269
      9 C6          3.9242   -0.2124   -2.7662 C.2       1 <0>         0.3293
     10 N3          4.7135    0.5288   -2.0160 N.2       1 <0>        -0.5258
     11 C7          5.9553    0.7800   -2.3697 C.2       1 <0>         0.1594
     12 C8          6.3811    0.2320   -3.5541 C.2       1 <0>        -0.2201
     13 S1          4.9054   -0.6325   -4.0674 S.3       1 <0>         0.1748
     14 C9          7.6573    0.3234   -4.1970 C.1       1 <0>         0.0697
     15 C10         8.7036    0.3984   -4.7242 C.1       1 <0>        -0.2832
     16 C11        10.0155    0.4924   -5.3851 C.3       1 <0>         0.1486
     17 N4          9.9863   -0.2680   -6.6417 N.4       1 <0>        -0.6380
     18 H1          1.0039    1.9031    0.0027 H         1 <0>         0.0789
     19 H2         -0.5459    1.8868   -0.8726 H         1 <0>         0.0551
     20 H3         -0.5289    1.8773    0.9072 H         1 <0>         0.0695
     21 H4          0.2319   -0.1594    2.1383 H         1 <0>         0.0695
     22 H5          0.7568   -1.6008    1.2356 H         1 <0>         0.0553
     23 H6          1.7647   -0.1336    1.2338 H         1 <0>         0.0790
     24 H7         -1.9605   -0.1726   -0.8702 H         1 <0>         0.0645
     25 H8         -1.4185   -1.6235    0.0069 H         1 <0>         0.0646
     26 H9         -1.9435   -0.1821    0.9097 H         1 <0>         0.0812
     27 H10         0.2179   -1.0371   -1.8404 H         1 <0>         0.3990
     28 H11         2.1325   -1.1275   -3.1729 H         1 <0>         0.4263
     29 H12         6.6071    1.3872   -1.7591 H         1 <0>         0.1873
     30 H13        10.2411    1.5373   -5.5979 H         1 <0>         0.1542
     31 H14        10.7830    0.0812   -4.7294 H         1 <0>         0.1530
     32 H15        10.8856   -0.2036   -7.0948 H         1 <0>         0.4440
     33 H16         9.7775   -1.2353   -6.4447 H         1 <0>         0.4380
     34 H17         9.2759    0.1126   -7.2487 H         1 <0>         0.4386
@<TRIPOS>BOND
     1    1    2 1
     2    1   18 1
     3    1   19 1
     4    1   20 1
     5    2    3 1
     6    2    4 1
     7    2    5 1
     8    3   21 1
     9    3   22 1
    10    3   23 1
    11    4   24 1
    12    4   25 1
    13    4   26 1
    14    5    6 am
    15    5   27 1
    16    6    7 2
    17    6    8 am
    18    8    9 1
    19    8   28 1
    20    9   13 1
    21    9   10 2
    22   10   11 1
    23   11   12 2
    24   11   29 1
    25   12   13 1
    26   12   14 1
    27   14   15 3
    28   15   16 1
    29   16   17 1
    30   16   30 1
    31   16   31 1
    32   17   32 1
    33   17   33 1
    34   17   34 1
@<TRIPOS>MOLECULE
ZINC42428922
   41    41     0     0     0
SMALL
USER_CHARGES

@<TRIPOS>ATOM
      1 C1          2.5339   -1.9575    0.6984 C.3       1 <0>        -0.1726
      2 C2          1.2525   -2.2601   -0.0811 C.3       1 <0>        -0.1438
      3 C3          1.2380   -1.4440   -1.3751 C.3       1 <0>         0.0187
      4 H1          1.4028   -0.3918   -1.1430 H         1 <0>         0.1747
      5 C4         -0.1172   -1.6076   -2.0661 C.3       1 <0>        -0.1444
      6 C5         -0.2544   -0.5740   -3.1541 C.2       1 <0>         0.2519
      7 S1          0.6160    0.7662   -3.0980 S.2       1 <0>        -0.4170
      8 N1         -1.1107   -0.7792   -4.1745 N.pl3     1 <0>        -0.7619
      9 N2          2.3032   -1.9213   -2.2670 N.4       1 <0>        -0.3713
     10 C6          1.7060   -2.6388   -3.3997 C.3       1 <0>         0.0038
     11 C7          2.8136   -3.2078   -4.2891 C.3       1 <0>        -0.1366
     12 H2          2.3681   -3.7386   -5.1305 H         1 <0>         0.1450
     13 C8          3.6821   -2.0596   -4.8109 C.3       1 <0>        -0.1290
     14 C9          4.2398   -1.2730   -3.6212 C.3       1 <0>        -0.1446
     15 C10         3.0794   -0.7757   -2.7565 C.3       1 <0>         0.0012
     16 H3          2.4350   -0.1284   -3.3514 H         1 <0>         0.1642
     17 C11         3.6317    0.0113   -1.5664 C.3       1 <0>        -0.1781
     18 C12         3.6640   -4.1591   -3.4873 C.2       1 <0>         0.5219
     19 O1          3.4097   -4.3624   -2.3190 O.2       1 <0>        -0.5558
     20 N3          4.7072   -4.7839   -4.0685 N.am      1 <0>        -0.8306
     21 H4          3.3952   -2.3166    0.1351 H         1 <0>         0.0545
     22 H5          2.6215   -0.8817    0.8498 H         1 <0>         0.0738
     23 H6          2.4977   -2.4588    1.6656 H         1 <0>         0.0842
     24 H7          1.2157   -3.3227   -0.3212 H         1 <0>         0.0893
     25 H8          0.3869   -1.9946    0.5257 H         1 <0>         0.1121
     26 H9         -0.1850   -2.6046   -2.5015 H         1 <0>         0.1175
     27 H10        -0.9157   -1.4749   -1.3361 H         1 <0>         0.1480
     28 H11        -1.6387   -1.5922   -4.2085 H         1 <0>         0.4066
     29 H12        -1.1990   -0.1138   -4.8748 H         1 <0>         0.4301
     30 H13         1.0856   -3.4537   -3.0267 H         1 <0>         0.1368
     31 H14         1.0909   -1.9518   -3.9809 H         1 <0>         0.1243
     32 H15         4.5061   -2.4639   -5.3989 H         1 <0>         0.1003
     33 H16         3.0781   -1.3994   -5.4334 H         1 <0>         0.0985
     34 H17         4.8850   -1.9202   -3.0272 H         1 <0>         0.0823
     35 H18         4.8138   -0.4208   -3.9851 H         1 <0>         0.1193
     36 H19         4.1691   -0.6650   -0.9016 H         1 <0>         0.0756
     37 H20         4.3115    0.7839   -1.9256 H         1 <0>         0.1043
     38 H21         2.8081    0.4756   -1.0240 H         1 <0>         0.0903
     39 H22         4.9107   -4.6213   -5.0028 H         1 <0>         0.4116
     40 H23         5.2546   -5.3961   -3.5523 H         1 <0>         0.4166
     41 H24         2.9113   -2.5458   -1.7588 H         1 <0>         0.4282
@<TRIPOS>BOND
     1    1    2 1
     2    1   21 1
     3    1   22 1
     4    1   23 1
     5    2    3 1
     6    2   24 1
     7    2   25 1
     8    3    4 1
     9    3    5 1
    10    3    9 1
    11    5    6 1
    12    5   26 1
    13    5   27 1
    14    6    7 2
    15    6    8 1
    16    8   28 1
    17    8   29 1
    18    9   15 1
    19    9   10 1
    20    9   41 1
    21   10   11 1
    22   10   30 1
    23   10   31 1
    24   11   12 1
    25   11   13 1
    26   11   18 1
    27   13   14 1
    28   13   32 1
    29   13   33 1
    30   14   15 1
    31   14   34 1
    32   14   35 1
    33   15   16 1
    34   15   17 1
    35   17   36 1
    36   17   37 1
    37   17   38 1
    38   18   19 2
    39   18   20 am
    40   20   39 1
    41   20   40 1
@<TRIPOS>MOLECULE
ZINC44475087
   39    39     0     0     0
SMALL
USER_CHARGES

@<TRIPOS>ATOM
      1 C1         -0.0187    1.5258    0.0104 C.3       1 <0>        -0.1545
      2 C2          0.0021   -0.0041    0.0020 C.3       1 <0>         0.0638
      3 O1         -1.3386   -0.4987    0.0122 O.3       1 <0>        -0.3240
      4 C3         -1.4984   -1.8485    0.0064 C.ar      1 <0>         0.1296
      5 C4         -1.5857   -2.5327   -1.1970 C.ar      1 <0>        -0.0728
      6 C5         -1.7477   -3.9047   -1.2003 C.ar      1 <0>        -0.0817
      7 C6         -1.8232   -4.5965   -0.0055 C.ar      1 <0>        -0.0964
      8 C7         -1.7369   -3.9177    1.1958 C.ar      1 <0>        -0.0873
      9 C8         -1.5686   -2.5455    1.2049 C.ar      1 <0>        -0.0537
     10 Cl1        -1.4531   -1.6940    2.7133 Cl        1 <0>        -0.0391
     11 C9         -2.0003   -6.0930   -0.0127 C.3       1 <0>         0.1245
     12 H1         -2.3966   -6.4073   -0.9783 H         1 <0>         0.1208
     13 C10        -0.6484   -6.7678    0.2278 C.3       1 <0>        -0.0538
     14 N1         -0.8390   -8.2200    0.3400 N.4       1 <0>        -0.6378
     15 N2         -2.9370   -6.4804    1.0506 N.3       1 <0>        -0.8349
     16 C11        -1.5046   -1.7799   -2.4999 C.3       1 <0>        -0.0624
     17 C12        -0.3114   -2.2902   -3.3103 C.3       1 <0>        -0.1448
     18 C13        -2.7927   -1.9982   -3.2962 C.3       1 <0>        -0.1440
     19 H2          1.0039    1.9031    0.0027 H         1 <0>         0.0809
     20 H3         -0.5459    1.8868   -0.8726 H         1 <0>         0.0684
     21 H4         -0.5289    1.8773    0.9072 H         1 <0>         0.0691
     22 H5          0.5123   -0.3556   -0.8948 H         1 <0>         0.0567
     23 H6          0.5293   -0.3651    0.8851 H         1 <0>         0.0565
     24 H7         -1.8157   -4.4375   -2.1373 H         1 <0>         0.1369
     25 H8         -1.7969   -4.4602    2.1277 H         1 <0>         0.1344
     26 H9          0.0188   -6.5524   -0.6068 H         1 <0>         0.1470
     27 H10        -0.2110   -6.3864    1.1505 H         1 <0>         0.1377
     28 H11         0.0526   -8.6650    0.4986 H         1 <0>         0.4433
     29 H12        -1.4566   -8.4195    1.1126 H         1 <0>         0.4273
     30 H13        -3.1225   -7.4719    1.0255 H         1 <0>         0.3420
     31 H14        -2.5919   -6.1998    1.9563 H         1 <0>         0.3588
     32 H15        -1.3783   -0.7162   -2.2978 H         1 <0>         0.0920
     33 H16        -0.4377   -3.3538   -3.5125 H         1 <0>         0.0554
     34 H17        -0.2527   -1.7456   -4.2528 H         1 <0>         0.0677
     35 H18         0.6063   -2.1346   -2.7431 H         1 <0>         0.0546
     36 H19        -3.6428   -1.6346   -2.7188 H         1 <0>         0.0602
     37 H20        -2.7340   -1.4537   -4.2386 H         1 <0>         0.0666
     38 H21        -2.9190   -3.0618   -3.4983 H         1 <0>         0.0552
     39 H22        -1.2439   -8.5731   -0.5141 H         1 <0>         0.4379
@<TRIPOS>BOND
     1    1    2 1
     2    1   19 1
     3    1   20 1
     4    1   21 1
     5    2    3 1
     6    2   22 1
     7    2   23 1
     8    3    4 1
     9    4    9 ar
    10    4    5 ar
    11    5    6 ar
    12    5   16 1
    13    6    7 ar
    14    6   24 1
    15    7    8 ar
    16    7   11 1
    17    8    9 ar
    18    8   25 1
    19    9   10 1
    20   11   12 1
    21   11   13 1
    22   11   15 1
    23   13   14 1
    24   13   26 1
    25   13   27 1
    26   14   28 1
    27   14   29 1
    28   14   39 1
    29   15   30 1
    30   15   31 1
    31   16   17 1
    32   16   18 1
    33   16   32 1
    34   17   33 1
    35   17   34 1
    36   17   35 1
    37   18   36 1
    38   18   37 1
    39   18   38 1
@<TRIPOS>MOLECULE
ZINC55125843
   42    43     0     0     0
SMALL
USER_CHARGES

@<TRIPOS>ATOM
      1 C1         -0.0187    1.5258    0.0104 C.3       1 <0>        -0.1781
      2 C2          0.0021   -0.0041    0.0020 C.3       1 <0>        -0.1098
      3 H1          0.5123   -0.3556   -0.8948 H         1 <0>         0.0988
      4 C3         -1.4333   -0.5336    0.0129 C.3       1 <0>        -0.1105
      5 C4         -2.1494   -0.0402    1.2717 C.3       1 <0>        -0.1318
      6 C5         -1.4095   -0.5471    2.5112 C.3       1 <0>        -0.0918
      7 H2         -1.3947   -1.6369    2.5052 H         1 <0>         0.1070
      8 C6          0.0259   -0.0175    2.5003 C.3       1 <0>        -0.1284
      9 C7          0.7421   -0.5109    1.2415 C.3       1 <0>         0.0307
     10 H3          0.7568   -1.6008    1.2356 H         1 <0>         0.1446
     11 N1          2.1202   -0.0024    1.2311 N.4       1 <0>        -0.6364
     12 C8         -2.1148   -0.0611    3.7511 C.2       1 <0>         0.5413
     13 O1         -1.5273    0.6399    4.5476 O.2       1 <0>        -0.5244
     14 N2         -3.3985   -0.4053    3.9748 N.am      1 <0>        -0.5984
     15 C9         -4.2262   -1.2528    3.0973 C.3       1 <0>         0.0939
     16 C10        -5.3135   -1.8450    4.0284 C.3       1 <0>        -0.1334
     17 C11        -5.5951   -0.6503    4.9775 C.3       1 <0>        -0.1269
     18 C12        -4.2034   -0.0031    5.1375 C.3       1 <0>         0.1168
     19 H4         -3.7318   -0.3558    6.0547 H         1 <0>         0.1063
     20 C13        -4.3397    1.4973    5.1722 C.2       1 <0>         0.5121
     21 O2         -3.8175    2.1737    4.3115 O.2       1 <0>        -0.5292
     22 N3         -5.0420    2.0875    6.1596 N.am      1 <0>        -0.8514
     23 H5          1.0039    1.9031    0.0027 H         1 <0>         0.0524
     24 H6         -0.5459    1.8868   -0.8726 H         1 <0>         0.0857
     25 H7         -0.5289    1.8773    0.9072 H         1 <0>         0.0797
     26 H8         -1.9605   -0.1726   -0.8702 H         1 <0>         0.0910
     27 H9         -1.4185   -1.6235    0.0069 H         1 <0>         0.0787
     28 H10        -2.1642    1.0497    1.2777 H         1 <0>         0.0831
     29 H11        -3.1720   -0.4175    1.2794 H         1 <0>         0.0889
     30 H12         0.0111    1.0724    2.5063 H         1 <0>         0.1004
     31 H13         0.5531   -0.3786    3.3834 H         1 <0>         0.0965
     32 H14         2.1065    1.0065    1.2367 H         1 <0>         0.4326
     33 H15         2.6082   -0.3367    2.0486 H         1 <0>         0.4370
     34 H16        -4.6853   -0.6517    2.3124 H         1 <0>         0.0778
     35 H17        -3.6240   -2.0504    2.6622 H         1 <0>         0.0839
     36 H18        -6.2063   -2.1148    3.4644 H         1 <0>         0.0955
     37 H19        -4.9293   -2.7017    4.5821 H         1 <0>         0.0849
     38 H20        -6.2984    0.0467    4.5218 H         1 <0>         0.0861
     39 H21        -5.9675   -1.0016    5.9398 H         1 <0>         0.0983
     40 H22        -5.4597    1.5465    6.8479 H         1 <0>         0.4033
     41 H23        -5.1298    3.0533    6.1819 H         1 <0>         0.4064
     42 H24         2.5925   -0.3278    0.4010 H         1 <0>         0.4364
@<TRIPOS>BOND
     1    1    2 1
     2    1   23 1
     3    1   24 1
     4    1   25 1
     5    2    3 1
     6    2    9 1
     7    2    4 1
     8    4    5 1
     9    4   26 1
    10    4   27 1
    11    5    6 1
    12    5   28 1
    13    5   29 1
    14    6    7 1
    15    6    8 1
    16    6   12 1
    17    8    9 1
    18    8   30 1
    19    8   31 1
    20    9   10 1
    21    9   11 1
    22   11   32 1
    23   11   33 1
    24   11   42 1
    25   12   13 2
    26   12   14 am
    27   14   18 1
    28   14   15 1
    29   15   16 1
    30   15   34 1
    31   15   35 1
    32   16   17 1
    33   16   36 1
    34   16   37 1
    35   17   18 1
    36   17   38 1
    37   17   39 1
    38   18   19 1
    39   18   20 1
    40   20   21 2
    41   20   22 am
    42   22   40 1
    43   22   41 1
@<TRIPOS>MOLECULE
ZINC63210848
   35    36     0     0     0
SMALL
USER_CHARGES

@<TRIPOS>ATOM
      1 C1         -0.3393    1.9815   -1.3397 C.2       1 <0>         0.1554
      2 C2          0.9527    2.2442   -0.9305 C.2       1 <0>        -0.3184
      3 C3          1.5688    0.9998   -0.6693 C.2       1 <0>         0.0766
      4 N1          0.6968    0.0596   -0.9087 N.2       1 <0>        -0.2784
      5 N2         -0.5012    0.6487   -1.3283 N.pl3     1 <0>        -0.4512
      6 H1         -1.3119    0.1742   -1.5701 H         1 <0>         0.4537
      7 C4          1.5735    3.5743   -0.7924 C.2       1 <0>         0.6062
      8 O1          0.9320    4.5745   -1.0505 O.2       1 <0>        -0.5176
      9 N3          2.8522    3.6816   -0.3800 N.am      1 <0>        -0.7576
     10 C5          3.4691    5.0032   -0.2427 C.3       1 <0>         0.1263
     11 H2          3.0154    5.6806   -0.9662 H         1 <0>         0.1228
     12 C6          3.1969    5.5354    1.1772 C.3       1 <0>        -0.1292
     13 C7          4.1366    6.6904    1.5728 C.3       1 <0>        -0.1260
     14 C8          4.3486    7.6703    0.4508 C.3       1 <0>        -0.1303
     15 C9          5.6280    7.2714   -0.3128 C.3       1 <0>        -0.1297
     16 C10         5.3984    6.1801   -1.2480 C.3       1 <0>        -0.1276
     17 C11         4.9396    4.8873   -0.5400 C.3       1 <0>         0.0198
     18 H3          5.4926    4.7618    0.3909 H         1 <0>         0.1532
     19 N4          5.1761    3.7338   -1.4183 N.4       1 <0>        -0.6334
     20 H4         -1.0843    2.7136   -1.6140 H         1 <0>         0.1973
     21 H5          2.5838    0.8528   -0.3308 H         1 <0>         0.1864
     22 H6          3.3639    2.8837   -0.1741 H         1 <0>         0.3908
     23 H7          2.1665    5.8870    1.2293 H         1 <0>         0.0866
     24 H8          3.3239    4.7195    1.8887 H         1 <0>         0.0759
     25 H9          3.7080    7.2176    2.4252 H         1 <0>         0.0782
     26 H10         5.1011    6.2757    1.8658 H         1 <0>         0.0654
     27 H11         3.4946    7.6424   -0.2260 H         1 <0>         0.0734
     28 H12         4.4636    8.6746    0.8585 H         1 <0>         0.0798
     29 H13         5.9946    8.1373   -0.8640 H         1 <0>         0.0874
     30 H14         6.3876    6.9658    0.4067 H         1 <0>         0.0746
     31 H15         4.6333    6.4829   -1.9629 H         1 <0>         0.0936
     32 H16         6.3233    5.9777   -1.7882 H         1 <0>         0.0901
     33 H17         4.5812    3.8018   -2.2304 H         1 <0>         0.4368
     34 H18         6.1423    3.7249   -1.7089 H         1 <0>         0.4392
     35 H19         4.9673    2.8823   -0.9187 H         1 <0>         0.4299
@<TRIPOS>BOND
     1    1    5 1
     2    1    2 2
     3    1   20 1
     4    2    3 1
     5    2    7 1
     6    3    4 2
     7    3   21 1
     8    4    5 1
     9    5    6 1
    10    7    8 2
    11    7    9 am
    12    9   10 1
    13    9   22 1
    14   10   11 1
    15   10   17 1
    16   10   12 1
    17   12   13 1
    18   12   23 1
    19   12   24 1
    20   13   14 1
    21   13   25 1
    22   13   26 1
    23   14   15 1
    24   14   27 1
    25   14   28 1
    26   15   16 1
    27   15   29 1
    28   15   30 1
    29   16   17 1
    30   16   31 1
    31   16   32 1
    32   17   18 1
    33   17   19 1
    34   19   33 1
    35   19   34 1
    36   19   35 1
@<TRIPOS>MOLECULE
ZINC32229622
   47    49     0     0     0
SMALL
USER_CHARGES
(2R)-2-(2,3-dihydro-1,4-benzodioxin-6-yl)-2-(2,3,6-trimethylphenoxy)ethanamine
@<TRIPOS>ATOM
      1 C1         -6.9340   -2.7088    4.5276 C.3       1 <0>        -0.1215
      2 C2         -5.8498   -1.8609    3.9139 C.ar      1 <0>        -0.0740
      3 C3         -4.8964   -1.2679    4.7211 C.ar      1 <0>        -0.1014
      4 C4         -3.9008   -0.4892    4.1612 C.ar      1 <0>        -0.1051
      5 C5         -3.8558   -0.3019    2.7930 C.ar      1 <0>        -0.0762
      6 C6         -4.8107   -0.8961    1.9811 C.ar      1 <0>         0.0778
      7 C7         -5.8123   -1.6725    2.5461 C.ar      1 <0>        -0.1133
      8 C8         -6.8553   -2.3140    1.6676 C.3       1 <0>        -0.1160
      9 O1         -4.7686   -0.7135    0.6351 O.3       1 <0>        -0.3267
     10 C9         -4.1524   -1.7435   -0.1404 C.3       1 <0>         0.1145
     11 H1         -4.2315   -2.6652    0.4547 H         1 <0>         0.0955
     12 C10        -4.8753   -1.8730   -1.4826 C.3       1 <0>         0.0062
     13 N1         -6.2850   -2.2133   -1.2487 N.4       1 <0>        -0.6914
     14 C11        -2.7061   -1.3945   -0.3804 C.ar      1 <0>        -0.1334
     15 C12        -2.3677   -0.1376   -0.8462 C.ar      1 <0>        -0.0845
     16 C13        -1.0429    0.1849   -1.0715 C.ar      1 <0>        -0.1145
     17 C14        -0.0485   -0.7502   -0.8250 C.ar      1 <0>         0.0761
     18 C15        -0.3886   -2.0130   -0.3552 C.ar      1 <0>         0.0541
     19 C16        -1.7205   -2.3315   -0.1349 C.ar      1 <0>        -0.0926
     20 O2          0.5712   -2.9455   -0.1061 O.3       1 <0>        -0.3053
     21 C17         1.8570   -2.7176   -0.6932 C.3       1 <0>         0.0164
     22 C18         2.2446   -1.2532   -0.4468 C.3       1 <0>         0.0161
     23 O3          1.2517   -0.4186   -1.0530 O.3       1 <0>        -0.3009
     24 C19        -2.7699    0.5467    2.1832 C.3       1 <0>        -0.1310
     25 H2         -6.8000   -2.7419    5.6189 H         1 <0>         0.0733
     26 H3         -6.8766   -3.7289    4.1200 H         1 <0>         0.0725
     27 H4         -7.9167   -2.2745    4.2918 H         1 <0>         0.0743
     28 H5         -4.9298   -1.4130    5.7908 H         1 <0>         0.1323
     29 H6         -3.1577   -0.0265    4.7938 H         1 <0>         0.1327
     30 H7         -6.6617   -2.0515    0.6171 H         1 <0>         0.0309
     31 H8         -7.8525   -1.9519    1.9582 H         1 <0>         0.0914
     32 H9         -6.8130   -3.4068    1.7863 H         1 <0>         0.0839
     33 H10        -4.8138   -0.9184   -2.0258 H         1 <0>         0.1434
     34 H11        -4.4009   -2.6658   -2.0796 H         1 <0>         0.1484
     35 H12        -6.8047   -2.3064   -2.2137 H         1 <0>         0.4578
     36 H13        -6.7594   -1.4205   -0.6517 H         1 <0>         0.4620
     37 H14        -3.1401    0.5928   -1.0367 H         1 <0>         0.1377
     38 H15        -0.7812    1.1676   -1.4350 H         1 <0>         0.1428
     39 H16        -1.9875   -3.3128    0.2285 H         1 <0>         0.1350
     40 H17         2.5959   -3.3873   -0.2289 H         1 <0>         0.1314
     41 H18         1.8077   -2.9187   -1.7735 H         1 <0>         0.0834
     42 H19         2.2885   -1.0627    0.6357 H         1 <0>         0.0848
     43 H20         3.2296   -1.0543   -0.8943 H         1 <0>         0.1327
     44 H21        -2.8987    0.5779    1.0912 H         1 <0>         0.0844
     45 H22        -1.7877    0.1142    2.4244 H         1 <0>         0.0689
     46 H23        -2.8308    1.5673    2.5890 H         1 <0>         0.0743
     47 H24        -6.3465   -3.1679   -0.7055 H         1 <0>         0.4529
@<TRIPOS>BOND
     1    1    2 1
     2    1   25 1
     3    1   26 1
     4    1   27 1
     5    2    7 ar
     6    2    3 ar
     7    3    4 ar
     8    3   28 1
     9    4    5 ar
    10    4   29 1
    11    5    6 ar
    12    5   24 1
    13    6    7 ar
    14    6    9 1
    15    7    8 1
    16    8   30 1
    17    8   31 1
    18    8   32 1
    19    9   10 1
    20   10   11 1
    21   10   12 1
    22   10   14 1
    23   12   13 1
    24   12   33 1
    25   12   34 1
    26   13   35 1
    27   13   36 1
    28   13   47 1
    29   14   19 ar
    30   14   15 ar
    31   15   16 ar
    32   15   37 1
    33   16   17 ar
    34   16   38 1
    35   17   23 1
    36   17   18 ar
    37   18   19 ar
    38   18   20 1
    39   19   39 1
    40   20   21 1
    41   21   22 1
    42   21   40 1
    43   21   41 1
    44   22   23 1
    45   22   42 1
    46   22   43 1
    47   24   44 1
    48   24   45 1
    49   24   46 1
@<TRIPOS>MOLECULE
ZINC10434238
   58    59     0     0     0
SMALL
USER_CHARGES

@<TRIPOS>ATOM
      1 C1          0.4393    1.2337    0.7457 C.3       1 <0>        -0.1805
      2 C2         -0.0919   -0.1169    0.2556 C.3       1 <0>         0.0596
      3 C3         -1.5989   -0.0324    0.0385 C.3       1 <0>        -0.1257
      4 C4         -2.3308   -0.0207    1.3805 C.3       1 <0>         0.0997
      5 C5         -1.9853   -1.3120    2.1225 C.3       1 <0>        -0.1648
      6 C6         -0.4810   -1.4062    2.3537 C.3       1 <0>         0.0572
      7 N1          0.3017   -1.1958    1.1468 N.4       1 <0>        -0.3608
      8 C7          1.7181   -1.0054    1.5266 C.3       1 <0>        -0.0681
      9 C8          2.6204   -1.4864    0.3884 C.3       1 <0>         0.0738
     10 H1          2.5345   -0.8034   -0.4568 H         1 <0>         0.1444
     11 C9          4.0724   -1.5228    0.8692 C.3       1 <0>         0.0337
     12 O1          4.9281   -1.8593   -0.2247 O.3       1 <0>        -0.3672
     13 C10         6.3139   -1.9204    0.1189 C.3       1 <0>         0.0922
     14 C11         6.6673   -3.3417    0.5617 C.3       1 <0>        -0.1392
     15 C12         8.1510   -3.4071    0.9295 C.3       1 <0>        -0.1194
     16 C13         8.9956   -3.0275   -0.2885 C.3       1 <0>        -0.1260
     17 C14         8.6421   -1.6062   -0.7313 C.3       1 <0>        -0.1188
     18 C15         7.1585   -1.5408   -1.0991 C.3       1 <0>        -0.1162
     19 O2          2.2195   -2.7971   -0.0158 O.3       1 <0>        -0.5408
     20 C16        -0.1811   -2.8355    2.8626 C.3       1 <0>        -0.1813
     21 C17        -0.0642   -0.4376    3.4650 C.3       1 <0>        -0.1785
     22 O3         -3.7433    0.0262    1.1476 O.3       1 <0>        -0.5528
     23 C18         0.5582   -0.3869   -1.1214 C.3       1 <0>        -0.1871
     24 H2          1.5279    1.2014    0.7904 H         1 <0>         0.0856
     25 H3          0.1271    2.0186    0.0567 H         1 <0>         0.1089
     26 H4          0.0409    1.4422    1.7386 H         1 <0>         0.0822
     27 H5         -1.8376    0.8812   -0.5115 H         1 <0>         0.1176
     28 H6         -1.9321   -0.8920   -0.5479 H         1 <0>         0.0978
     29 H7         -2.0397    0.8460    1.9668 H         1 <0>         0.0738
     30 H8         -2.5038   -1.3261    3.0843 H         1 <0>         0.1119
     31 H9         -2.3183   -2.1688    1.5320 H         1 <0>         0.0983
     32 H10         1.9045    0.0517    1.7160 H         1 <0>         0.1534
     33 H11         1.9330   -1.5794    2.4279 H         1 <0>         0.1383
     34 H12         4.3503   -0.5440    1.2601 H         1 <0>         0.0667
     35 H13         4.1762   -2.2708    1.6552 H         1 <0>         0.0606
     36 H14         6.5173   -1.2250    0.9331 H         1 <0>         0.0621
     37 H15         6.0656   -3.6121    1.4294 H         1 <0>         0.0588
     38 H16         6.4638   -4.0371   -0.2526 H         1 <0>         0.0740
     39 H17         8.3545   -2.7116    1.7438 H         1 <0>         0.0626
     40 H18         8.4028   -4.4196    1.2450 H         1 <0>         0.0692
     41 H19        10.0526   -3.0741   -0.0264 H         1 <0>         0.0685
     42 H20         8.7921   -3.7229   -1.1028 H         1 <0>         0.0662
     43 H21         8.8456   -0.9108    0.0830 H         1 <0>         0.0639
     44 H22         9.2439   -1.3358   -1.5990 H         1 <0>         0.0731
     45 H23         6.9550   -2.2363   -1.9134 H         1 <0>         0.0739
     46 H24         6.9066   -0.5283   -1.4146 H         1 <0>         0.0691
     47 H25         2.2086   -3.4441    0.7027 H         1 <0>         0.3839
     48 H26        -0.3898   -3.5545    2.0704 H         1 <0>         0.0830
     49 H27         0.8678   -2.9061    3.1504 H         1 <0>         0.0805
     50 H28        -0.8101   -3.0533    3.7258 H         1 <0>         0.1083
     51 H29        -0.5384   -0.7328    4.4011 H         1 <0>         0.1045
     52 H30         1.0191   -0.4638    3.5825 H         1 <0>         0.0828
     53 H31        -0.3769    0.5730    3.2023 H         1 <0>         0.0827
     54 H32        -4.2750    0.0361    1.9552 H         1 <0>         0.3925
     55 H33         1.5020    0.1541   -1.1900 H         1 <0>         0.0918
     56 H34         0.7429   -1.4554   -1.2328 H         1 <0>         0.0926
     57 H35        -0.1122   -0.0498   -1.9121 H         1 <0>         0.1033
     58 H36         0.2692   -2.0697    0.6039 H         1 <0>         0.4243
@<TRIPOS>BOND
     1    1    2 1
     2    1   24 1
     3    1   25 1
     4    1   26 1
     5    2    7 1
     6    2    3 1
     7    2   23 1
     8    3    4 1
     9    3   27 1
    10    3   28 1
    11    4    5 1
    12    4   22 1
    13    4   29 1
    14    5    6 1
    15    5   30 1
    16    5   31 1
    17    6    7 1
    18    6   20 1
    19    6   21 1
    20    7    8 1
    21    7   58 1
    22    8    9 1
    23    8   32 1
    24    8   33 1
    25    9   10 1
    26    9   11 1
    27    9   19 1
    28   11   12 1
    29   11   34 1
    30   11   35 1
    31   12   13 1
    32   13   18 1
    33   13   14 1
    34   13   36 1
    35   14   15 1
    36   14   37 1
    37   14   38 1
    38   15   16 1
    39   15   39 1
    40   15   40 1
    41   16   17 1
    42   16   41 1
    43   16   42 1
    44   17   18 1
    45   17   43 1
    46   17   44 1
    47   18   45 1
    48   18   46 1
    49   19   47 1
    50   20   48 1
    51   20   49 1
    52   20   50 1
    53   21   51 1
    54   21   52 1
    55   21   53 1
    56   22   54 1
    57   23   55 1
    58   23   56 1
    59   23   57 1
@<TRIPOS>MOLECULE
ZINC42880426
   35    37     0     0     0
SMALL
USER_CHARGES

@<TRIPOS>ATOM
      1 C1         -0.0167    1.3780    0.0096 C.ar      1 <0>        -0.0963
      2 C2          1.1709    2.0859    0.0021 C.ar      1 <0>        -0.0765
      3 C3          2.3773    1.4120   -0.0131 C.ar      1 <0>        -0.0819
      4 C4          2.3966    0.0286   -0.0207 C.ar      1 <0>        -0.0844
      5 C5          1.2084   -0.6791   -0.0132 C.ar      1 <0>        -0.1398
      6 C6          0.0021   -0.0041    0.0020 C.ar      1 <0>        -0.0798
      7 C7          1.2287   -2.1859   -0.0220 C.3       1 <0>         0.0349
      8 N1          1.4890   -2.6801    1.3367 N.4       1 <0>        -0.5084
      9 C8          1.5088   -4.1489    1.3281 C.3       1 <0>         0.0536
     10 C9          1.7759   -4.6559    2.7219 C.ar      1 <0>        -0.1856
     11 C10         0.7471   -5.2018    3.4670 C.ar      1 <0>        -0.0567
     12 C11         0.9894   -5.6689    4.7480 C.ar      1 <0>         0.0335
     13 C12         2.2717   -5.5879    5.2862 C.ar      1 <0>         0.0927
     14 C13         3.3008   -5.0413    4.5377 C.ar      1 <0>        -0.1275
     15 C14         3.0543   -4.5794    3.2534 C.ar      1 <0>         0.1428
     16 O1          4.0658   -4.0472    2.5168 O.3       1 <0>        -0.4806
     17 O2          2.2491   -6.1088    6.5477 O.3       1 <0>        -0.2945
     18 C15         0.8608   -6.1343    6.9287 C.3       1 <0>         0.2107
     19 O3          0.1635   -6.2410    5.6735 O.3       1 <0>        -0.2971
     20 Br1         4.0470   -0.8942   -0.0421 Br        1 <0>        -0.0290
     21 H1         -0.9592    1.9050    0.0260 H         1 <0>         0.1457
     22 H2          1.1558    3.1658    0.0077 H         1 <0>         0.1473
     23 H3          3.3049    1.9651   -0.0193 H         1 <0>         0.1476
     24 H4         -0.9258   -0.5567    0.0083 H         1 <0>         0.1449
     25 H5          0.2646   -2.5603   -0.3662 H         1 <0>         0.1514
     26 H6          2.0142   -2.5348   -0.6922 H         1 <0>         0.1448
     27 H7          2.3815   -2.3336    1.6553 H         1 <0>         0.4155
     28 H8          0.5447   -4.5233    0.9839 H         1 <0>         0.1474
     29 H9          2.2944   -4.4978    0.6578 H         1 <0>         0.1493
     30 H10        -0.2469   -5.2643    3.0493 H         1 <0>         0.1537
     31 H11         4.2956   -4.9773    4.9531 H         1 <0>         0.1572
     32 H12         4.1749   -3.0931    2.6299 H         1 <0>         0.3904
     33 H13         0.6521   -6.9998    7.5576 H         1 <0>         0.1465
     34 H14         0.5874   -5.2122    7.4415 H         1 <0>         0.0985
     35 H15         0.7618   -2.3572    1.9571 H         1 <0>         0.4295
@<TRIPOS>BOND
     1    1    6 ar
     2    1    2 ar
     3    1   21 1
     4    2    3 ar
     5    2   22 1
     6    3    4 ar
     7    3   23 1
     8    4    5 ar
     9    4   20 1
    10    5    6 ar
    11    5    7 1
    12    6   24 1
    13    7    8 1
    14    7   25 1
    15    7   26 1
    16    8    9 1
    17    8   27 1
    18    8   35 1
    19    9   10 1
    20    9   28 1
    21    9   29 1
    22   10   15 ar
    23   10   11 ar
    24   11   12 ar
    25   11   30 1
    26   12   19 1
    27   12   13 ar
    28   13   14 ar
    29   13   17 1
    30   14   15 ar
    31   14   31 1
    32   15   16 1
    33   16   32 1
    34   17   18 1
    35   18   19 1
    36   18   33 1
    37   18   34 1
@<TRIPOS>MOLECULE
ZINC54999410
   46    47     0     0     0
SMALL
USER_CHARGES

@<TRIPOS>ATOM
      1 C1         -1.5392    0.5929    0.8808 C.3       1 <0>        -0.1686
      2 C2         -1.1191   -0.8189    0.4671 C.3       1 <0>         0.1168
      3 N1         -0.1478   -0.7387   -0.6267 N.pl3     1 <0>        -0.5410
      4 C3          1.2849   -0.6639   -0.3301 C.3       1 <0>         0.1563
      5 C4          1.8569   -2.0563   -0.2608 C.ar      1 <0>        -0.0804
      6 C5          1.8818   -2.7546    0.9368 C.ar      1 <0>        -0.1527
      7 C6          2.4143   -4.0297    0.9620 C.ar      1 <0>         0.1079
      8 N2          2.8949   -4.5817   -0.1349 N.ar      1 <0>        -0.4731
      9 C7          2.8876   -3.9474   -1.2910 C.ar      1 <0>         0.1057
     10 C8          2.3656   -2.6719   -1.3942 C.ar      1 <0>        -0.1601
     11 C9         -0.5845   -0.7335   -1.9422 C.2       1 <0>         0.3665
     12 N3         -1.8192   -0.7881   -2.3944 N.2       1 <0>        -0.5863
     13 C10        -2.0717   -0.7734   -3.6914 C.2       1 <0>         0.2183
     14 C11        -1.0069   -0.6999   -4.5254 C.2       1 <0>        -0.3889
     15 S1          0.3352   -0.6485   -3.3491 S.3       1 <0>         0.1011
     16 C12        -0.9665   -0.6658   -6.0315 C.3       1 <0>         0.1082
     17 N4         -0.8578    0.7265   -6.4870 N.4       1 <0>        -0.6436
     18 C13        -3.4818   -0.8360   -4.2192 C.3       1 <0>        -0.0111
     19 C14        -4.4674   -0.7574   -3.0516 C.3       1 <0>        -0.1306
     20 C15        -3.7230    0.3381   -5.1701 C.3       1 <0>        -0.1480
     21 C16        -3.6867   -2.1522   -4.9719 C.3       1 <0>        -0.1446
     22 H1         -0.6631    1.1500    1.2129 H         1 <0>         0.0598
     23 H2         -1.9919    1.1013    0.0295 H         1 <0>         0.0600
     24 H3         -2.2618    0.5332    1.6946 H         1 <0>         0.0778
     25 H4         -0.6664   -1.3274    1.3184 H         1 <0>         0.0894
     26 H5         -1.9951   -1.3761    0.1350 H         1 <0>         0.0927
     27 H6          1.7898   -0.1024   -1.1162 H         1 <0>         0.0937
     28 H7          1.4322   -0.1625    0.6264 H         1 <0>         0.1155
     29 H8          1.4904   -2.3075    1.8387 H         1 <0>         0.1389
     30 H9          2.4374   -4.5802    1.8909 H         1 <0>         0.1630
     31 H10         3.2905   -4.4319   -2.1682 H         1 <0>         0.1601
     32 H11         2.3579   -2.1595   -2.3449 H         1 <0>         0.1313
     33 H12        -0.1047   -1.2321   -6.3848 H         1 <0>         0.1424
     34 H13        -1.8798   -1.1081   -6.4296 H         1 <0>         0.1502
     35 H14         0.0517    1.0898   -6.2442 H         1 <0>         0.4328
     36 H15        -0.9782    0.7632   -7.4881 H         1 <0>         0.4367
     37 H16        -4.3215    0.1803   -2.5154 H         1 <0>         0.0608
     38 H17        -5.4874   -0.8027   -3.4334 H         1 <0>         0.0606
     39 H18        -4.2956   -1.5938   -2.3742 H         1 <0>         0.0660
     40 H19        -3.1233    0.2055   -6.0706 H         1 <0>         0.0383
     41 H20        -4.7786    0.3769   -5.4391 H         1 <0>         0.0850
     42 H21        -3.4391    1.2684   -4.6781 H         1 <0>         0.0648
     43 H22        -3.6251   -2.9848   -4.2711 H         1 <0>         0.0673
     44 H23        -4.6673   -2.1497   -5.4479 H         1 <0>         0.0752
     45 H24        -2.9137   -2.2598   -5.7328 H         1 <0>         0.0552
     46 H25        -1.5721    1.2829   -6.0417 H         1 <0>         0.4307
@<TRIPOS>BOND
     1    1    2 1
     2    1   22 1
     3    1   23 1
     4    1   24 1
     5    2    3 1
     6    2   25 1
     7    2   26 1
     8    3    4 1
     9    3   11 1
    10    4    5 1
    11    4   27 1
    12    4   28 1
    13    5   10 ar
    14    5    6 ar
    15    6    7 ar
    16    6   29 1
    17    7    8 ar
    18    7   30 1
    19    8    9 ar
    20    9   10 ar
    21    9   31 1
    22   10   32 1
    23   11   15 1
    24   11   12 2
    25   12   13 1
    26   13   14 2
    27   13   18 1
    28   14   15 1
    29   14   16 1
    30   16   17 1
    31   16   33 1
    32   16   34 1
    33   17   35 1
    34   17   36 1
    35   17   46 1
    36   18   19 1
    37   18   20 1
    38   18   21 1
    39   19   37 1
    40   19   38 1
    41   19   39 1
    42   20   40 1
    43   20   41 1
    44   20   42 1
    45   21   43 1
    46   21   44 1
    47   21   45 1
@<TRIPOS>MOLECULE
ZINC66586633
   47    48     0     0     0
SMALL
USER_CHARGES

@<TRIPOS>ATOM
      1 C1          0.0493    1.5972    0.1772 C.3       1 <0>        -0.1889
      2 C2          0.0418    0.0677    0.1408 C.3       1 <0>         0.0812
      3 H1          0.5231   -0.2763   -0.7747 H         1 <0>         0.1216
      4 C3          0.8029   -0.4750    1.3521 C.3       1 <0>        -0.0469
      5 N1          0.8990   -1.9377    1.2548 N.4       1 <0>        -0.5072
      6 C4          1.6297   -2.4587    2.4178 C.3       1 <0>         0.0856
      7 C5          1.7284   -3.9592    2.3181 C.2       1 <0>        -0.3123
      8 C6          1.0006   -4.8528    3.0227 C.2       1 <0>         0.1128
      9 N2          1.3842   -6.0918    2.6468 N.pl3     1 <0>        -0.3347
     10 N3          2.3848   -5.9625    1.6752 N.2       1 <0>        -0.2352
     11 C7          2.5916   -4.6790    1.4692 C.2       1 <0>         0.1255
     12 C8          3.5648   -4.0937    0.5137 C.ar      1 <0>        -0.0359
     13 C9          4.4330   -3.0863    0.9290 C.ar      1 <0>        -0.0988
     14 C10         5.3360   -2.5454    0.0365 C.ar      1 <0>        -0.1118
     15 C11         5.3804   -3.0010   -1.2690 C.ar      1 <0>        -0.0869
     16 C12         4.5215   -4.0005   -1.6877 C.ar      1 <0>        -0.1056
     17 C13         3.6176   -4.5538   -0.8012 C.ar      1 <0>        -0.0144
     18 Cl1         2.5446   -5.8136   -1.3258 Cl        1 <0>        -0.0429
     19 C14         0.8476   -7.3523    3.1658 C.3       1 <0>         0.1742
     20 C15        -0.5406   -7.5987    2.5717 C.3       1 <0>        -0.1614
     21 C16         1.7798   -8.5017    2.7775 C.3       1 <0>        -0.1503
     22 C17         0.7434   -7.2731    4.6902 C.3       1 <0>        -0.1631
     23 O1         -1.3070   -0.4030    0.1757 O.3       1 <0>        -0.5564
     24 H2          1.0781    1.9563    0.1506 H         1 <0>         0.0797
     25 H3         -0.4929    1.9839   -0.6857 H         1 <0>         0.0869
     26 H4         -0.4320    1.9412    1.0927 H         1 <0>         0.0720
     27 H5          1.8045   -0.0457    1.3740 H         1 <0>         0.1418
     28 H6          0.2720   -0.2057    2.2652 H         1 <0>         0.1360
     29 H7         -0.0282   -2.3351    1.2345 H         1 <0>         0.4298
     30 H8          2.6314   -2.0294    2.4398 H         1 <0>         0.1334
     31 H9          1.0989   -2.1894    3.3309 H         1 <0>         0.1362
     32 H10         0.2448   -4.6177    3.7575 H         1 <0>         0.1843
     33 H11         4.3992   -2.7290    1.9477 H         1 <0>         0.1352
     34 H12         6.0093   -1.7645    0.3578 H         1 <0>         0.1396
     35 H13         6.0884   -2.5741   -1.9640 H         1 <0>         0.1419
     36 H14         4.5602   -4.3522   -2.7081 H         1 <0>         0.1437
     37 H15        -0.4663   -7.6551    1.4857 H         1 <0>         0.0687
     38 H16        -0.9399   -8.5365    2.9579 H         1 <0>         0.0891
     39 H17        -1.2047   -6.7798    2.8484 H         1 <0>         0.0642
     40 H18         2.7689   -8.3262    3.2007 H         1 <0>         0.0685
     41 H19         1.3806   -9.4396    3.1636 H         1 <0>         0.0824
     42 H20         1.8541   -8.5582    1.6915 H         1 <0>         0.0747
     43 H21         0.0792   -6.4542    4.9668 H         1 <0>         0.0663
     44 H22         0.3441   -8.2109    5.0763 H         1 <0>         0.0922
     45 H23         1.7324   -7.0976    5.1134 H         1 <0>         0.0705
     46 H24        -1.7972   -0.1340    0.9647 H         1 <0>         0.3892
     47 H25         1.3904   -2.1870    0.4096 H         1 <0>         0.4255
@<TRIPOS>BOND
     1    1    2 1
     2    1   24 1
     3    1   25 1
     4    1   26 1
     5    2    3 1
     6    2    4 1
     7    2   23 1
     8    4    5 1
     9    4   27 1
    10    4   28 1
    11    5    6 1
    12    5   29 1
    13    5   47 1
    14    6    7 1
    15    6   30 1
    16    6   31 1
    17    7   11 1
    18    7    8 2
    19    8    9 1
    20    8   32 1
    21    9   10 1
    22    9   19 1
    23   10   11 2
    24   11   12 1
    25   12   17 ar
    26   12   13 ar
    27   13   14 ar
    28   13   33 1
    29   14   15 ar
    30   14   34 1
    31   15   16 ar
    32   15   35 1
    33   16   17 ar
    34   16   36 1
    35   17   18 1
    36   19   20 1
    37   19   21 1
    38   19   22 1
    39   20   37 1
    40   20   38 1
    41   20   39 1
    42   21   40 1
    43   21   41 1
    44   21   42 1
    45   22   43 1
    46   22   44 1
    47   22   45 1
    48   23   46 1
@<TRIPOS>MOLECULE
ZINC11737528
   48    51     0     0     0
SMALL
USER_CHARGES
(S)-[2-(4-methoxyphenyl)-4-quinolyl]-(1-methylpyrrol-2-yl)methanamine
@<TRIPOS>ATOM
      1 C1          4.5582    3.6513   -2.9581 C.3       1 <0>         0.0583
      2 N1          5.1111    4.3628   -1.8030 N.pl3     1 <0>        -0.4241
      3 C2          6.0895    5.3114   -1.8481 C.2       1 <0>         0.0316
      4 C3          6.3283    5.7310   -0.5890 C.2       1 <0>        -0.1879
      5 C4          5.4620    5.0191    0.2642 C.2       1 <0>        -0.1751
      6 C5          4.7327    4.1856   -0.5052 C.2       1 <0>        -0.0612
      7 C6          3.6770    3.2281   -0.0156 C.3       1 <0>         0.1735
      8 H1          3.5840    2.3997   -0.7180 H         1 <0>         0.1497
      9 C7          2.3570    3.9472    0.0907 C.ar      1 <0>        -0.1037
     10 C8          2.3010    5.3091    0.0909 C.ar      1 <0>        -0.1035
     11 C9          1.0596    5.9572    0.1914 C.ar      1 <0>         0.2155
     12 N2         -0.0673    5.2772    0.2872 N.ar      1 <0>        -0.4431
     13 C10        -0.0724    3.9416    0.2915 C.ar      1 <0>         0.1394
     14 C11         1.1490    3.2289    0.1929 C.ar      1 <0>        -0.0899
     15 C12         1.1349    1.8254    0.1992 C.ar      1 <0>        -0.1447
     16 C13        -0.0512    1.1639    0.2998 C.ar      1 <0>        -0.0781
     17 C14        -1.2537    1.8620    0.3911 C.ar      1 <0>        -0.0995
     18 C15        -1.2770    3.2227    0.3934 C.ar      1 <0>        -0.0718
     19 C16         1.0138    7.4384    0.1904 C.ar      1 <0>        -0.1171
     20 C17         2.1950    8.1741    0.0961 C.ar      1 <0>        -0.0497
     21 C18         2.1486    9.5518    0.0901 C.ar      1 <0>        -0.2133
     22 C19         0.9282   10.2073    0.1884 C.ar      1 <0>         0.1582
     23 C20        -0.2494    9.4777    0.2882 C.ar      1 <0>        -0.1572
     24 C21        -0.2101    8.0998    0.2894 C.ar      1 <0>        -0.0276
     25 O1          0.8862   11.5649    0.1874 O.3       1 <0>        -0.3100
     26 C22         2.1344   12.2525    0.0819 C.3       1 <0>         0.0231
     27 H2          3.7626    4.2473   -3.4052 H         1 <0>         0.0861
     28 H3          5.3453    3.4857   -3.6937 H         1 <0>         0.0991
     29 H4          4.1553    2.6915   -2.6348 H         1 <0>         0.0835
     30 H5          6.5870    5.6659   -2.7387 H         1 <0>         0.1781
     31 H6          7.0481    6.4785   -0.2900 H         1 <0>         0.1517
     32 H7          5.3958    5.1206    1.3374 H         1 <0>         0.1428
     33 H8          3.2093    5.8882    0.0135 H         1 <0>         0.1564
     34 H9          2.0599    1.2729    0.1242 H         1 <0>         0.1194
     35 H10        -0.0604    0.0840    0.3045 H         1 <0>         0.1376
     36 H11        -2.1816    1.3145    0.4655 H         1 <0>         0.1419
     37 H12        -2.2172    3.7485    0.4697 H         1 <0>         0.1468
     38 H13         3.1447    7.6649    0.0237 H         1 <0>         0.1274
     39 H14         3.0625   10.1220    0.0126 H         1 <0>         0.1369
     40 H15        -1.1968    9.9905    0.3645 H         1 <0>         0.1408
     41 H16        -1.1261    7.5330    0.3674 H         1 <0>         0.1441
     42 H17         2.7717   11.9798    0.9232 H         1 <0>         0.0596
     43 H18         2.6250   11.9740   -0.8507 H         1 <0>         0.0594
     44 H19         1.9587   13.3282    0.0929 H         1 <0>         0.1071
     45 H20         4.1528    3.4592    1.9740 H         1 <0>         0.4399
     46 H21         3.4010    2.0171    1.6262 H         1 <0>         0.4403
     47 N3          4.0825    2.6997    1.2988 N.4       1 <0>        -0.6373
     48 H22         4.9982    2.2435    1.2112 H         1 <0>         0.4465
@<TRIPOS>BOND
     1    1    2 1
     2    1   27 1
     3    1   28 1
     4    1   29 1
     5    2    6 1
     6    2    3 1
     7    3    4 2
     8    3   30 1
     9    4    5 1
    10    4   31 1
    11    5    6 2
    12    5   32 1
    13    6    7 1
    14    7    8 1
    15    7    9 1
    16    7   47 1
    17    9   14 ar
    18    9   10 ar
    19   10   11 ar
    20   10   33 1
    21   11   12 ar
    22   11   19 1
    23   12   13 ar
    24   13   18 ar
    25   13   14 ar
    26   14   15 ar
    27   15   16 ar
    28   15   34 1
    29   16   17 ar
    30   16   35 1
    31   17   18 ar
    32   17   36 1
    33   18   37 1
    34   19   24 ar
    35   19   20 ar
    36   20   21 ar
    37   20   38 1
    38   21   22 ar
    39   21   39 1
    40   22   23 ar
    41   22   25 1
    42   23   24 ar
    43   23   40 1
    44   24   41 1
    45   25   26 1
    46   26   42 1
    47   26   43 1
    48   26   44 1
    49   45   47 1
    50   46   47 1
    51   47   48 1
@<TRIPOS>MOLECULE
ZINC31934745
   49    51     0     0     0
SMALL
USER_CHARGES
(7S)-2-[(allylamino)methyl]-7-tert-butyl-5,6,7,8-tetrahydro-3H-benzothiopheno[2,3-d]pyrimidin-4-one
@<TRIPOS>ATOM
      1 C1        -10.2017   -2.0029    1.1063 C.3       1 <0>        -0.1514
      2 C2         -9.6710   -2.9228    0.0048 C.3       1 <0>        -0.0617
      3 C3        -10.6599   -2.9439   -1.1625 C.3       1 <0>        -0.1482
      4 C4         -9.5058   -4.3393    0.5590 C.3       1 <0>        -0.1487
      5 C5         -8.3166   -2.4050   -0.4835 C.3       1 <0>        -0.0700
      6 H1         -7.9480   -3.0670   -1.2809 H         1 <0>         0.0795
      7 C6         -8.4749   -0.9796   -1.0208 C.3       1 <0>        -0.1247
      8 C7         -7.1930   -0.5469   -1.7328 C.3       1 <0>        -0.0620
      9 C8         -6.0094   -0.7701   -0.7956 C.2       1 <0>        -0.0626
     10 C9         -6.1175   -1.5959    0.2666 C.2       1 <0>        -0.1371
     11 S1         -4.5288   -1.5456    1.0512 S.3       1 <0>         0.1795
     12 C10        -3.7228   -0.4137   -0.0531 C.2       1 <0>         0.0645
     13 C11        -4.7188   -0.1123   -0.9954 C.2       1 <0>        -0.2053
     14 C12        -4.3365    0.8024   -2.0308 C.2       1 <0>         0.5574
     15 O1         -5.1319    1.1272   -2.8954 O.2       1 <0>        -0.4934
     16 N1         -3.0863    1.3013   -2.0288 N.am      1 <0>        -0.6394
     17 H2         -2.7762    2.0114   -2.8096 H         1 <0>         0.4545
     18 C13        -2.1857    0.9469   -1.0763 C.2       1 <0>         0.3503
     19 N2         -2.5047    0.1163   -0.1199 N.2       1 <0>        -0.4932
     20 C14        -0.7955    1.5269   -1.1198 C.3       1 <0>         0.0652
     21 N3         -0.0116    1.0048    0.0076 N.4       1 <0>        -0.5279
     22 C15         1.3525    1.5499   -0.0025 C.3       1 <0>         0.0346
     23 C16         2.1246    0.9930    1.1657 C.2       1 <0>        -0.2424
     24 C17         3.2642    0.3791    0.9648 C.2       1 <0>        -0.1058
     25 C18        -7.3218   -2.3825    0.6859 C.3       1 <0>        -0.0472
     26 H3         -9.4907   -1.9878    1.9455 H         1 <0>         0.0570
     27 H4        -11.1754   -2.3752    1.4573 H         1 <0>         0.0591
     28 H5        -10.3204   -0.9845    0.7079 H         1 <0>         0.0595
     29 H6        -10.2783   -3.6052   -1.9544 H         1 <0>         0.0565
     30 H7        -10.7786   -1.9255   -1.5609 H         1 <0>         0.0603
     31 H8        -11.6336   -3.3162   -0.8114 H         1 <0>         0.0593
     32 H9         -9.1243   -5.0006   -0.2329 H         1 <0>         0.0567
     33 H10       -10.4795   -4.7115    0.9101 H         1 <0>         0.0597
     34 H11        -8.7948   -4.3241    1.3982 H         1 <0>         0.0564
     35 H12        -9.3137   -0.9468   -1.7317 H         1 <0>         0.0824
     36 H13        -8.6754   -0.2929   -0.1852 H         1 <0>         0.0704
     37 H14        -7.0619   -1.1443   -2.6471 H         1 <0>         0.0824
     38 H15        -7.2624    0.5184   -1.9978 H         1 <0>         0.0878
     39 H16        -0.3100    1.2449   -2.0657 H         1 <0>         0.1631
     40 H17        -0.8532    2.6232   -1.0498 H         1 <0>         0.1636
     41 H18        -0.4971    1.2868    0.9535 H         1 <0>         0.4616
     42 H19         1.8530    1.2681   -0.9406 H         1 <0>         0.1306
     43 H20         1.3098    2.6463    0.0753 H         1 <0>         0.1361
     44 H21         1.7312    1.1020    2.1871 H         1 <0>         0.1387
     45 H22         3.8278   -0.0274    1.8175 H         1 <0>         0.1266
     46 H23         3.6576    0.2701   -0.0566 H         1 <0>         0.1142
     47 H24        -7.7941   -1.9105    1.5600 H         1 <0>         0.0996
     48 H25        -7.0295   -3.4124    0.9386 H         1 <0>         0.0921
     49 H26         0.0461   -0.0915   -0.0624 H         1 <0>         0.4617
@<TRIPOS>BOND
     1    1    2 1
     2    1   26 1
     3    1   27 1
     4    1   28 1
     5    2    3 1
     6    2    4 1
     7    2    5 1
     8    3   29 1
     9    3   30 1
    10    3   31 1
    11    4   32 1
    12    4   33 1
    13    4   34 1
    14    5    6 1
    15    5   25 1
    16    5    7 1
    17    7    8 1
    18    7   35 1
    19    7   36 1
    20    8    9 1
    21    8   37 1
    22    8   38 1
    23    9   13 1
    24    9   10 2
    25   10   11 1
    26   10   25 1
    27   11   12 1
    28   12   19 1
    29   12   13 2
    30   13   14 1
    31   14   15 2
    32   14   16 am
    33   16   17 1
    34   16   18 1
    35   18   19 2
    36   18   20 1
    37   20   21 1
    38   20   39 1
    39   20   40 1
    40   21   22 1
    41   21   41 1
    42   21   49 1
    43   22   23 1
    44   22   42 1
    45   22   43 1
    46   23   24 2
    47   23   44 1
    48   24   45 1
    49   24   46 1
    50   25   47 1
    51   25   48 1
@<TRIPOS>MOLECULE
ZINC39499941
   52    55     0     0     0
SMALL
USER_CHARGES

@<TRIPOS>ATOM
      1 C1          1.0283   -2.4916   -0.0106 C.3       1 <0>        -0.1639
      2 C2          0.4532   -1.9445   -1.3186 C.3       1 <0>        -0.0933
      3 C3         -0.9996   -2.4008   -1.4674 C.3       1 <0>        -0.1514
      4 C4          0.5082   -0.4156   -1.2998 C.3       1 <0>        -0.1407
      5 C5          1.9681    0.0422   -1.2922 C.3       1 <0>         0.1044
      6 H1          2.4955   -0.4310   -0.4640 H         1 <0>         0.1479
      7 C6          2.6260   -0.3402   -2.5966 C.2       1 <0>         0.0233
      8 H2          3.0351   -2.3748   -2.4172 H         1 <0>         0.4220
      9 C7          2.8472    0.5452   -3.5954 C.2       1 <0>        -0.1537
     10 C8          3.4904   -0.1745   -4.6710 C.ar      1 <0>        -0.0999
     11 C9          3.9485    0.2121   -5.9340 C.ar      1 <0>        -0.0643
     12 C10         4.5228   -0.7627   -6.7122 C.ar      1 <0>        -0.1357
     13 C11         4.6488   -2.0717   -6.2779 C.ar      1 <0>        -0.0807
     14 C12         4.2040   -2.4828   -5.0330 C.ar      1 <0>        -0.1285
     15 C13         3.6168   -1.5153   -4.2212 C.ar      1 <0>         0.1122
     16 N1          3.0831   -1.5759   -2.9652 N.pl3     1 <0>        -0.5633
     17 C14         2.4551    1.9991   -3.5127 C.3       1 <0>        -0.0651
     18 C15         1.4721    2.1544   -2.3437 C.3       1 <0>        -0.0182
     19 N2          2.0262    1.5046   -1.1436 N.4       1 <0>        -0.3799
     20 C16         1.2485    1.9052    0.0365 C.3       1 <0>         0.0873
     21 C17         1.4372    3.3794    0.2857 C.2       1 <0>        -0.0990
     22 C18         0.6753    4.3664   -0.2189 C.2       1 <0>        -0.1409
     23 C19         1.2048    5.5831    0.2693 C.2       1 <0>        -0.1899
     24 C20         2.2588    5.2667    1.0430 C.2       1 <0>         0.0376
     25 O1          2.3913    3.9303    1.0539 O.3       1 <0>        -0.1600
     26 C21         3.1382    6.2456    1.7775 C.3       1 <0>         0.1467
     27 O2          2.6053    6.4782    3.0828 O.3       1 <0>        -0.5648
     28 H3          2.0881   -2.2446    0.0517 H         1 <0>         0.0507
     29 H4          0.5010   -2.0457    0.8327 H         1 <0>         0.0668
     30 H5          0.9054   -3.5744    0.0155 H         1 <0>         0.0724
     31 H6          1.0393   -2.3188   -2.1579 H         1 <0>         0.0769
     32 H7         -1.5857   -2.0264   -0.6281 H         1 <0>         0.0627
     33 H8         -1.4093   -2.0110   -2.3992 H         1 <0>         0.0608
     34 H9         -1.0387   -3.4900   -1.4807 H         1 <0>         0.0679
     35 H10         0.0090   -0.0231   -2.1858 H         1 <0>         0.0964
     36 H11         0.0066   -0.0449   -0.4059 H         1 <0>         0.0976
     37 H12         3.8554    1.2305   -6.2815 H         1 <0>         0.1346
     38 H13         4.8881   -0.5002   -7.6940 H         1 <0>         0.1279
     39 H14         5.1095   -2.7965   -6.9328 H         1 <0>         0.1312
     40 H15         4.3075   -3.5070   -4.7062 H         1 <0>         0.1352
     41 H16         3.3398    2.6105   -3.3348 H         1 <0>         0.0995
     42 H17         1.9748    2.3053   -4.4420 H         1 <0>         0.1221
     43 H18         1.3132    3.2136   -2.1411 H         1 <0>         0.1390
     44 H19         0.5220    1.6879   -2.6037 H         1 <0>         0.1359
     45 H20         0.1924    1.6984   -0.1370 H         1 <0>         0.1608
     46 H21         1.5909    1.3431    0.9053 H         1 <0>         0.1482
     47 H22        -0.1771    4.2516   -0.8721 H         1 <0>         0.1653
     48 H23         0.8345    6.5759    0.0607 H         1 <0>         0.1660
     49 H24         4.1447    5.8361    1.8636 H         1 <0>         0.0723
     50 H25         3.1743    7.1856    1.2269 H         1 <0>         0.0926
     51 H26         3.1219    7.1000    3.6135 H         1 <0>         0.3995
     52 H27         2.9862    1.7904   -1.0217 H         1 <0>         0.4293
@<TRIPOS>BOND
     1    1    2 1
     2    1   28 1
     3    1   29 1
     4    1   30 1
     5    2    3 1
     6    2    4 1
     7    2   31 1
     8    3   32 1
     9    3   33 1
    10    3   34 1
    11    4    5 1
    12    4   35 1
    13    4   36 1
    14    5    6 1
    15    5   19 1
    16    5    7 1
    17    7    9 2
    18    7   16 1
    19    8   16 1
    20    9   10 1
    21    9   17 1
    22   10   11 ar
    23   10   15 ar
    24   11   12 ar
    25   11   37 1
    26   12   13 ar
    27   12   38 1
    28   13   14 ar
    29   13   39 1
    30   14   15 ar
    31   14   40 1
    32   15   16 1
    33   17   18 1
    34   17   41 1
    35   17   42 1
    36   18   19 1
    37   18   43 1
    38   18   44 1
    39   19   20 1
    40   19   52 1
    41   20   21 1
    42   20   45 1
    43   20   46 1
    44   21   25 1
    45   21   22 2
    46   22   23 1
    47   22   47 1
    48   23   24 2
    49   23   48 1
    50   24   25 1
    51   24   26 1
    52   26   27 1
    53   26   49 1
    54   26   50 1
    55   27   51 1
@<TRIPOS>MOLECULE
ZINC46543707
   52    55     0     0     0
SMALL
USER_CHARGES

@<TRIPOS>ATOM
      1 C1          8.2551  -11.0311    2.2737 C.3       1 <0>        -0.1203
      2 C2          6.8560  -10.5953    1.9221 C.ar      1 <0>        -0.0375
      3 C3          6.3605  -10.8368    0.6467 C.ar      1 <0>        -0.1441
      4 C4          5.0967  -10.4505    0.3076 C.ar      1 <0>        -0.0503
      5 C5          4.2885   -9.8041    1.2521 C.ar      1 <0>        -0.1319
      6 C6          2.9691   -9.2918    1.2150 C.2       1 <0>        -0.0777
      7 C7          2.6961   -8.7631    2.4365 C.2       1 <0>        -0.0118
      8 N1          3.7982   -8.9203    3.2546 N.pl3     1 <0>        -0.5834
      9 H1          3.8624   -8.6291    4.1776 H         1 <0>         0.4119
     10 C8          4.7885   -9.5581    2.5457 C.ar      1 <0>         0.1283
     11 C9          6.0795   -9.9669    2.8694 C.ar      1 <0>        -0.1447
     12 C10         1.4297   -8.1249    2.8255 C.2       1 <0>         0.5978
     13 O1          0.5199   -8.0391    2.0225 O.2       1 <0>        -0.5072
     14 N2          1.2769   -7.6349    4.0717 N.am      1 <0>        -0.7298
     15 C11         0.0152   -6.9991    4.4593 C.3       1 <0>         0.1079
     16 C12         0.0543   -6.6548    5.9495 C.3       1 <0>         0.0719
     17 H2          0.9364   -6.0498    6.1596 H         1 <0>         0.1475
     18 C13         0.1128   -7.9256    6.7574 C.ar      1 <0>        -0.1416
     19 C14        -1.0403   -8.6531    6.9856 C.ar      1 <0>        -0.1183
     20 C15        -0.9867   -9.8188    7.7267 C.ar      1 <0>        -0.0992
     21 C16         0.2200  -10.2573    8.2391 C.ar      1 <0>        -0.0890
     22 C17         1.3732   -9.5302    8.0101 C.ar      1 <0>        -0.1015
     23 C18         1.3203   -8.3668    7.2654 C.ar      1 <0>        -0.0955
     24 N3         -1.1538   -5.9007    6.3097 N.4       1 <0>        -0.3888
     25 C19        -1.1248   -5.5451    7.7516 C.3       1 <0>        -0.0010
     26 C20        -2.0941   -4.3396    7.8390 C.3       1 <0>        -0.1445
     27 C21        -1.8128   -3.5738    6.5259 C.3       1 <0>        -0.1428
     28 C22        -1.1899   -4.6157    5.5782 C.3       1 <0>        -0.0142
     29 H3          8.2311  -12.0475    2.6668 H         1 <0>         0.0767
     30 H4          8.8801  -11.0014    1.3812 H         1 <0>         0.0736
     31 H5          8.6661  -10.3596    3.0276 H         1 <0>         0.0686
     32 H6          6.9817  -11.3346   -0.0832 H         1 <0>         0.1301
     33 H7          4.7203  -10.6421   -0.6864 H         1 <0>         0.1306
     34 H8          2.2998   -9.3166    0.3678 H         1 <0>         0.1584
     35 H9          6.4720   -9.7880    3.8595 H         1 <0>         0.1237
     36 H10         2.0023   -7.7033    4.7121 H         1 <0>         0.4003
     37 H11        -0.1252   -6.0871    3.8792 H         1 <0>         0.0938
     38 H12        -0.8109   -7.6835    4.2661 H         1 <0>         0.0964
     39 H13        -1.9831   -8.3106    6.5853 H         1 <0>         0.1196
     40 H14        -1.8877  -10.3869    7.9056 H         1 <0>         0.1374
     41 H15         0.2617  -11.1676    8.8186 H         1 <0>         0.1374
     42 H16         2.3159   -9.8726    8.4107 H         1 <0>         0.1380
     43 H17         2.2219   -7.8007    7.0833 H         1 <0>         0.1298
     44 H18        -1.4863   -6.3744    8.3596 H         1 <0>         0.1356
     45 H19        -0.1196   -5.2534    8.0557 H         1 <0>         0.1343
     46 H20        -3.1294   -4.6788    7.8735 H         1 <0>         0.0993
     47 H21        -1.8613   -3.7195    8.7046 H         1 <0>         0.1187
     48 H22        -2.7420   -3.1884    6.1061 H         1 <0>         0.1076
     49 H23        -1.1114   -2.7591    6.7058 H         1 <0>         0.1055
     50 H24        -0.1781   -4.3138    5.3079 H         1 <0>         0.1325
     51 H25        -1.8024   -4.7157    4.6821 H         1 <0>         0.1365
     52 H26        -1.9784   -6.4433    6.1007 H         1 <0>         0.4257
@<TRIPOS>BOND
     1    1    2 1
     2    1   29 1
     3    1   30 1
     4    1   31 1
     5    2   11 ar
     6    2    3 ar
     7    3    4 ar
     8    3   32 1
     9    4    5 ar
    10    4   33 1
    11    5   10 ar
    12    5    6 1
    13    6    7 2
    14    6   34 1
    15    7    8 1
    16    7   12 1
    17    8    9 1
    18    8   10 1
    19   10   11 ar
    20   11   35 1
    21   12   13 2
    22   12   14 am
    23   14   15 1
    24   14   36 1
    25   15   16 1
    26   15   37 1
    27   15   38 1
    28   16   17 1
    29   16   18 1
    30   16   24 1
    31   18   23 ar
    32   18   19 ar
    33   19   20 ar
    34   19   39 1
    35   20   21 ar
    36   20   40 1
    37   21   22 ar
    38   21   41 1
    39   22   23 ar
    40   22   42 1
    41   23   43 1
    42   24   28 1
    43   24   25 1
    44   24   52 1
    45   25   26 1
    46   25   44 1
    47   25   45 1
    48   26   27 1
    49   26   46 1
    50   26   47 1
    51   27   28 1
    52   27   48 1
    53   27   49 1
    54   28   50 1
    55   28   51 1
@<TRIPOS>MOLECULE
ZINC67010540
   51    52     0     0     0
SMALL
USER_CHARGES

@<TRIPOS>ATOM
      1 C1         -0.0184    1.5028    0.0103 C.3       1 <0>        -0.1325
      2 C2          0.0021   -0.0041    0.0020 C.ar      1 <0>        -0.0412
      3 C3          0.0057   -0.6888   -1.1991 C.ar      1 <0>        -0.1140
      4 C4          0.0245   -2.0707   -1.2067 C.ar      1 <0>        -0.0620
      5 C5          0.0400   -2.7685   -0.0132 C.ar      1 <0>        -0.1717
      6 C6          0.0373   -2.0840    1.1875 C.ar      1 <0>        -0.0826
      7 C7          0.0229   -0.7015    1.1951 C.ar      1 <0>        -0.0846
      8 C8          0.0252    0.0449    2.5043 C.3       1 <0>        -0.1259
      9 C9          0.0595   -4.2753   -0.0215 C.3       1 <0>         0.0411
     10 N1          1.4283   -4.7460   -0.2721 N.4       1 <0>        -0.5088
     11 C10         1.4472   -6.2148   -0.2802 C.3       1 <0>         0.0778
     12 H1          0.7213   -6.5836   -1.0049 H         1 <0>         0.1510
     13 C11         1.0882   -6.7372    1.1123 C.3       1 <0>        -0.1800
     14 C12         2.8239   -6.6974   -0.6582 C.ar      1 <0>        -0.1643
     15 C13         3.9424   -6.0548   -0.1608 C.ar      1 <0>        -0.0674
     16 C14         5.2050   -6.4973   -0.5075 C.ar      1 <0>        -0.1208
     17 C15         5.3496   -7.5829   -1.3513 C.ar      1 <0>         0.0089
     18 C16         4.2314   -8.2259   -1.8479 C.ar      1 <0>        -0.6670
     19 C17         2.9684   -7.7859   -1.4977 C.ar      1 <0>         0.0076
     20 S1          4.4156   -9.6091   -2.9237 S.o2      1 <0>         2.6922
     21 O1          3.2182   -9.6944   -3.6842 O.2       1 <0>        -0.9458
     22 O2          5.6952   -9.4853   -3.5290 O.2       1 <0>        -0.9446
     23 N2          4.4705  -10.9644   -1.9738 N.pl3     1 <0>        -1.1163
     24 C18         3.2980  -11.3557   -1.1873 C.3       1 <0>         0.0806
     25 C19         0.0274   -2.8171   -2.5159 C.3       1 <0>        -0.1381
     26 H2          1.0042    1.8801    0.0026 H         1 <0>         0.0824
     27 H3         -0.5455    1.8639   -0.8728 H         1 <0>         0.0762
     28 H4         -0.5286    1.8543    0.9071 H         1 <0>         0.0785
     29 H5         -0.0064   -0.1437   -2.1314 H         1 <0>         0.1352
     30 H6          0.0491   -2.6290    2.1199 H         1 <0>         0.1319
     31 H7         -1.0017    0.2110    2.8297 H         1 <0>         0.0797
     32 H8          0.5542   -0.5412    3.2558 H         1 <0>         0.0713
     33 H9          0.5249    1.0049    2.3743 H         1 <0>         0.0767
     34 H10        -0.2819   -4.6484    0.9441 H         1 <0>         0.1409
     35 H11        -0.6007   -4.6429   -0.8071 H         1 <0>         0.1409
     36 H12         1.7443   -4.4006   -1.1660 H         1 <0>         0.4275
     37 H13         1.1023   -7.8271    1.1063 H         1 <0>         0.1091
     38 H14         1.8141   -6.3684    1.8370 H         1 <0>         0.0837
     39 H15         0.0924   -6.3882    1.3857 H         1 <0>         0.0890
     40 H16         3.8295   -5.2068    0.4984 H         1 <0>         0.1290
     41 H17         6.0788   -5.9949   -0.1195 H         1 <0>         0.1481
     42 H18         6.3362   -7.9283   -1.6228 H         1 <0>         0.1544
     43 H19         2.0946   -8.2906   -1.8826 H         1 <0>         0.1524
     44 H20         5.2789  -11.4993   -1.9381 H         1 <0>         0.4255
     45 H21         3.5214  -12.2654   -0.6301 H         1 <0>         0.0905
     46 H22         3.0442  -10.5563   -0.4911 H         1 <0>         0.0556
     47 H23         2.4561  -11.5364   -1.8556 H         1 <0>         0.0729
     48 H24         1.0557   -2.9830   -2.8372 H         1 <0>         0.0757
     49 H25        -0.4727   -3.7771   -2.3880 H         1 <0>         0.0693
     50 H26        -0.4985   -2.2309   -3.2695 H         1 <0>         0.0880
     51 H27         2.0394   -4.4057    0.4551 H         1 <0>         0.4239
@<TRIPOS>BOND
     1    1    2 1
     2    1   26 1
     3    1   27 1
     4    1   28 1
     5    2    7 ar
     6    2    3 ar
     7    3    4 ar
     8    3   29 1
     9    4    5 ar
    10    4   25 1
    11    5    6 ar
    12    5    9 1
    13    6    7 ar
    14    6   30 1
    15    7    8 1
    16    8   31 1
    17    8   32 1
    18    8   33 1
    19    9   10 1
    20    9   34 1
    21    9   35 1
    22   10   11 1
    23   10   36 1
    24   10   51 1
    25   11   12 1
    26   11   13 1
    27   11   14 1
    28   13   37 1
    29   13   38 1
    30   13   39 1
    31   14   19 ar
    32   14   15 ar
    33   15   16 ar
    34   15   40 1
    35   16   17 ar
    36   16   41 1
    37   17   18 ar
    38   17   42 1
    39   18   19 ar
    40   18   20 1
    41   19   43 1
    42   20   21 2
    43   20   22 2
    44   20   23 1
    45   23   24 1
    46   23   44 1
    47   24   45 1
    48   24   46 1
    49   24   47 1
    50   25   48 1
    51   25   49 1
    52   25   50 1
@<TRIPOS>MOLECULE
ZINC38645745
   40    41     0     0     0
SMALL
USER_CHARGES

@<TRIPOS>ATOM
      1 C1         -0.0167    1.3795    0.0096 C.ar      1 <0>        -0.1036
      2 C2          1.1763    2.0802    0.0020 C.ar      1 <0>        -0.0745
      3 C3          2.3805    1.4002   -0.0450 C.ar      1 <0>        -0.1455
      4 C4          2.3837    0.0288   -0.2488 C.ar      1 <0>        -0.1068
      5 C5          1.1914   -0.6737   -0.2251 C.ar      1 <0>        -0.0739
      6 C6          0.0021   -0.0041    0.0020 C.ar      1 <0>        -0.1451
      7 C7         -1.2224   -0.7762    0.4267 C.3       1 <0>         0.1332
      8 H1         -1.2363   -1.7537   -0.0554 H         1 <0>         0.1544
      9 O1         -1.1146   -0.9286    1.8570 O.3       1 <0>        -0.3816
     10 C8         -0.3563   -0.0139    2.4881 C.2       1 <0>         0.4967
     11 O2         -0.8864    0.9503    2.9872 O.2       1 <0>        -0.4295
     12 C9          1.1381   -0.1657    2.5865 C.3       1 <0>        -0.1612
     13 C10         1.8091    1.2081    2.6494 C.3       1 <0>        -0.1598
     14 C11         3.2628    1.0979    2.2747 C.2       1 <0>         0.4972
     15 O3          3.8749    0.0988    2.5698 O.2       1 <0>        -0.4278
     16 O4          3.8954    2.0874    1.6177 O.3       1 <0>        -0.3818
     17 C12         3.6775    2.1295    0.1920 C.3       1 <0>         0.1330
     18 H2          3.5952    3.1626   -0.1456 H         1 <0>         0.1540
     19 C13         4.8216    1.4231   -0.5380 C.3       1 <0>        -0.0317
     20 N1          6.0771    2.1464   -0.2965 N.4       1 <0>        -0.6325
     21 C14        -2.4887    0.0051    0.0705 C.3       1 <0>        -0.0328
     22 N2         -3.6704   -0.7599    0.4903 N.4       1 <0>        -0.6325
     23 H3         -0.9575    1.9095    0.0259 H         1 <0>         0.1460
     24 H4          1.1676    3.1597    0.0324 H         1 <0>         0.1533
     25 H5          3.3142   -0.4900   -0.4261 H         1 <0>         0.1453
     26 H6          1.1893   -1.7420   -0.3835 H         1 <0>         0.1544
     27 H7          1.3850   -0.7293    3.4863 H         1 <0>         0.1309
     28 H8          1.5041   -0.7063    1.7137 H         1 <0>         0.1126
     29 H9          1.3087    1.8860    1.9579 H         1 <0>         0.1111
     30 H10         1.7265    1.6039    3.6616 H         1 <0>         0.1302
     31 H11         4.9134    0.4021   -0.1676 H         1 <0>         0.1436
     32 H12         4.6132    1.4041   -1.6077 H         1 <0>         0.1607
     33 H13         5.9921    3.0915   -0.6394 H         1 <0>         0.4395
     34 H14         6.2701    2.1639    0.6937 H         1 <0>         0.4442
     35 H15        -2.4781    0.9673    0.5825 H         1 <0>         0.1437
     36 H16        -2.5247    0.1671   -1.0068 H         1 <0>         0.1608
     37 H17        -3.6803   -1.6506    0.0163 H         1 <0>         0.4395
     38 H18        -3.6371   -0.9099    1.4875 H         1 <0>         0.4439
     39 H19         6.8316    1.6805   -0.7779 H         1 <0>         0.4462
     40 H20        -4.5055   -0.2447    0.2554 H         1 <0>         0.4461
@<TRIPOS>BOND
     1    1    6 ar
     2    1    2 ar
     3    1   23 1
     4    2    3 ar
     5    2   24 1
     6    3   17 1
     7    3    4 ar
     8    4    5 ar
     9    4   25 1
    10    5    6 ar
    11    5   26 1
    12    6    7 1
    13    7    8 1
    14    7    9 1
    15    7   21 1
    16    9   10 1
    17   10   11 2
    18   10   12 1
    19   12   13 1
    20   12   27 1
    21   12   28 1
    22   13   14 1
    23   13   29 1
    24   13   30 1
    25   14   15 2
    26   14   16 1
    27   16   17 1
    28   17   18 1
    29   17   19 1
    30   19   20 1
    31   19   31 1
    32   19   32 1
    33   20   33 1
    34   20   34 1
    35   20   39 1
    36   21   22 1
    37   21   35 1
    38   21   36 1
    39   22   37 1
    40   22   38 1
    41   22   40 1
@<TRIPOS>MOLECULE
ZINC44530475
   38    38     0     0     0
SMALL
USER_CHARGES

@<TRIPOS>ATOM
      1 C1         -0.0184    1.5028    0.0103 C.3       1 <0>        -0.1665
      2 C2          0.0021   -0.0041    0.0020 C.2       1 <0>         0.5208
      3 O1          1.0605   -0.5961   -0.0113 O.2       1 <0>        -0.5255
      4 N1         -1.1558   -0.6938    0.0094 N.am      1 <0>        -0.5293
      5 N2         -1.1368   -2.0946    0.0017 N.am      1 <0>        -0.4879
      6 C3         -2.2947   -2.7843    0.0090 C.2       1 <0>         0.4949
      7 O2         -3.3531   -2.1923    0.0223 O.2       1 <0>        -0.5317
      8 C4         -2.2743   -4.2912    0.0007 C.3       1 <0>        -0.0208
      9 N3         -3.6524   -4.7996    0.0112 N.4       1 <0>        -0.3671
     10 C5         -4.3273   -4.4052   -1.2312 C.3       1 <0>        -0.0272
     11 C6         -5.7871   -4.8624   -1.1905 C.3       1 <0>        -0.1397
     12 C7         -5.8352   -6.3859   -1.0430 C.3       1 <0>        -0.1527
     13 C8         -5.0646   -6.7916    0.2166 C.3       1 <0>        -0.1419
     14 H1         -5.5528   -6.3678    1.0943 H         1 <0>         0.1207
     15 C9         -3.6316   -6.2630    0.1238 C.3       1 <0>        -0.0012
     16 C10        -5.0409   -8.3171    0.3320 C.3       1 <0>         0.0008
     17 N4         -6.4082   -8.8139    0.5364 N.4       1 <0>        -0.6383
     18 H2          1.0042    1.8801    0.0026 H         1 <0>         0.1130
     19 H3         -0.5455    1.8639   -0.8728 H         1 <0>         0.1023
     20 H4         -0.5286    1.8543    0.9071 H         1 <0>         0.1023
     21 H5         -2.0023   -0.2203    0.0200 H         1 <0>         0.4393
     22 H6         -0.2903   -2.5681   -0.0090 H         1 <0>         0.4426
     23 H7         -1.7641   -4.6427   -0.8961 H         1 <0>         0.1692
     24 H8         -1.7471   -4.6522    0.8838 H         1 <0>         0.1702
     25 H9         -4.2894   -3.3210   -1.3363 H         1 <0>         0.1570
     26 H10        -3.8252   -4.8694   -2.0801 H         1 <0>         0.1332
     27 H11        -6.2902   -4.3985   -0.3421 H         1 <0>         0.0960
     28 H12        -6.2859   -4.5701   -2.1145 H         1 <0>         0.1253
     29 H13        -6.8720   -6.7111   -0.9567 H         1 <0>         0.0934
     30 H14        -5.3775   -6.8512   -1.9160 H         1 <0>         0.1007
     31 H15        -3.1444   -6.6876   -0.7540 H         1 <0>         0.1450
     32 H16        -3.0801   -6.5502    1.0190 H         1 <0>         0.1456
     33 H17        -4.6322   -8.7443   -0.5837 H         1 <0>         0.1472
     34 H18        -4.4184   -8.6078    1.1781 H         1 <0>         0.1480
     35 H19        -6.7866   -8.4184    1.3840 H         1 <0>         0.4403
     36 H20        -6.9845   -8.5448   -0.2469 H         1 <0>         0.4376
     37 H21        -6.3925   -9.8200    0.6124 H         1 <0>         0.4510
     38 H22        -4.1478   -4.4097    0.7990 H         1 <0>         0.4333
@<TRIPOS>BOND
     1    1    2 1
     2    1   18 1
     3    1   19 1
     4    1   20 1
     5    2    3 2
     6    2    4 am
     7    4    5 1
     8    4   21 1
     9    5    6 am
    10    5   22 1
    11    6    7 2
    12    6    8 1
    13    8    9 1
    14    8   23 1
    15    8   24 1
    16    9   15 1
    17    9   10 1
    18    9   38 1
    19   10   11 1
    20   10   25 1
    21   10   26 1
    22   11   12 1
    23   11   27 1
    24   11   28 1
    25   12   13 1
    26   12   29 1
    27   12   30 1
    28   13   14 1
    29   13   15 1
    30   13   16 1
    31   15   31 1
    32   15   32 1
    33   16   17 1
    34   16   33 1
    35   16   34 1
    36   17   35 1
    37   17   36 1
    38   17   37 1
@<TRIPOS>MOLECULE
ZINC50243907
   28    28     0     0     0
SMALL
USER_CHARGES

@<TRIPOS>ATOM
      1 C1         -0.0187    1.5258    0.0104 C.3       1 <0>        -0.1853
      2 C2          0.0021   -0.0041    0.0020 C.3       1 <0>         0.0078
      3 H1          0.5293   -0.3651    0.8851 H         1 <0>         0.1687
      4 C3          0.7074   -0.4901   -1.2379 C.2       1 <0>         0.5111
      5 O1          0.1200   -1.1910   -2.0344 O.2       1 <0>        -0.5349
      6 N1          1.9912   -0.1458   -1.4616 N.am      1 <0>        -0.8142
      7 N2         -1.3761   -0.5125    0.0124 N.4       1 <0>        -0.3790
      8 C4         -2.0534   -0.1517    1.2845 C.3       1 <0>        -0.0101
      9 C5         -3.2065   -1.1701    1.4137 C.3       1 <0>        -0.1669
     10 C6         -2.7647   -2.3847    0.5717 C.3       1 <0>         0.0107
     11 H2         -3.4711   -2.5600   -0.2397 H         1 <0>         0.1819
     12 C7         -1.3819   -1.9981    0.0045 C.3       1 <0>        -0.0298
     13 N3         -2.6551   -3.5800    1.4186 N.4       1 <0>        -0.6309
     14 H3          1.0039    1.9031    0.0027 H         1 <0>         0.1192
     15 H4         -0.5459    1.8868   -0.8726 H         1 <0>         0.0954
     16 H5         -0.5289    1.8773    0.9072 H         1 <0>         0.1015
     17 H6          2.4610    0.4148   -0.8245 H         1 <0>         0.4167
     18 H7          2.4452   -0.4586   -2.2596 H         1 <0>         0.4305
     19 H8         -1.3642   -0.2494    2.1232 H         1 <0>         0.1485
     20 H9         -2.4470    0.8634    1.2309 H         1 <0>         0.1594
     21 H10        -3.3402   -1.4603    2.4558 H         1 <0>         0.1369
     22 H11        -4.1297   -0.7491    1.0156 H         1 <0>         0.1424
     23 H12        -1.2698   -2.3733   -1.0127 H         1 <0>         0.1831
     24 H13        -0.5875   -2.3848    0.6430 H         1 <0>         0.1472
     25 H14        -3.5566   -3.7923    1.8190 H         1 <0>         0.4552
     26 H15        -2.3427   -4.3603    0.8604 H         1 <0>         0.4508
     27 H16        -1.8907   -0.1534   -0.7777 H         1 <0>         0.4449
     28 H17        -1.9906   -3.4082    2.1583 H         1 <0>         0.4390
@<TRIPOS>BOND
     1    1    2 1
     2    1   14 1
     3    1   15 1
     4    1   16 1
     5    2    3 1
     6    2    4 1
     7    2    7 1
     8    4    5 2
     9    4    6 am
    10    6   17 1
    11    6   18 1
    12    7   12 1
    13    7    8 1
    14    7   27 1
    15    8    9 1
    16    8   19 1
    17    8   20 1
    18    9   10 1
    19    9   21 1
    20    9   22 1
    21   10   11 1
    22   10   12 1
    23   10   13 1
    24   12   23 1
    25   12   24 1
    26   13   25 1
    27   13   26 1
    28   13   28 1
@<TRIPOS>MOLECULE
ZINC19366314
   31    31     0     0     0
SMALL
USER_CHARGES

@<TRIPOS>ATOM
      1 C1         -0.0167    1.3781    0.0096 C.ar      1 <0>        -0.0914
      2 C2          1.1709    2.0855    0.0021 C.ar      1 <0>        -0.1100
      3 C3          2.3773    1.4107   -0.0130 C.ar      1 <0>        -0.1013
      4 C4          2.3960    0.0285   -0.0201 C.ar      1 <0>        -0.1551
      5 C5          1.2084   -0.6789   -0.0117 C.ar      1 <0>        -0.1069
      6 C6          0.0021   -0.0041    0.0020 C.ar      1 <0>        -0.1095
      7 C7          3.7112   -0.7071   -0.0376 C.3       1 <0>         0.1384
      8 H1          4.4875   -0.0738    0.3918 H         1 <0>         0.1344
      9 C8          4.0798   -1.0586   -1.4803 C.3       1 <0>        -0.0438
     10 N1          5.3618   -1.7757   -1.4973 N.4       1 <0>        -0.5010
     11 C9          5.7157   -2.1132   -2.8825 C.3       1 <0>        -0.0388
     12 C10         7.0509   -2.8601   -2.9002 C.3       1 <0>        -0.0325
     13 N2          7.4048   -3.1976   -4.2854 N.4       1 <0>        -0.6308
     14 O1          3.5962   -1.9067    0.7305 O.3       1 <0>        -0.5473
     15 H2         -0.9591    1.9053    0.0259 H         1 <0>         0.1360
     16 H3          1.1563    3.1654    0.0076 H         1 <0>         0.1355
     17 H4          3.3051    1.9634   -0.0196 H         1 <0>         0.1275
     18 H5          1.2231   -1.7588   -0.0176 H         1 <0>         0.1216
     19 H6         -0.9258   -0.5567    0.0082 H         1 <0>         0.1347
     20 H7          3.3035   -1.6920   -1.9097 H         1 <0>         0.1433
     21 H8          4.1675   -0.1436   -2.0661 H         1 <0>         0.1515
     22 H9          6.0804   -1.1895   -1.0999 H         1 <0>         0.4387
     23 H10         4.9394   -2.7465   -3.3119 H         1 <0>         0.1546
     24 H11         5.8034   -1.1982   -3.4683 H         1 <0>         0.1554
     25 H12         7.8272   -2.2268   -2.4709 H         1 <0>         0.1575
     26 H13         6.9632   -3.7751   -2.3144 H         1 <0>         0.1574
     27 H14         7.4860   -2.3506   -4.8277 H         1 <0>         0.4459
     28 H15         8.2854   -3.6901   -4.2971 H         1 <0>         0.4590
     29 H16         2.9224   -2.5191    0.4049 H         1 <0>         0.3903
     30 H17         6.6862   -3.7839   -4.6829 H         1 <0>         0.4459
     31 H18         5.2806   -2.6227   -0.9550 H         1 <0>         0.4407
@<TRIPOS>BOND
     1    1    6 ar
     2    1    2 ar
     3    1   15 1
     4    2    3 ar
     5    2   16 1
     6    3    4 ar
     7    3   17 1
     8    4    5 ar
     9    4    7 1
    10    5    6 ar
    11    5   18 1
    12    6   19 1
    13    7    8 1
    14    7    9 1
    15    7   14 1
    16    9   10 1
    17    9   20 1
    18    9   21 1
    19   10   11 1
    20   10   22 1
    21   10   31 1
    22   11   12 1
    23   11   23 1
    24   11   24 1
    25   12   13 1
    26   12   25 1
    27   12   26 1
    28   13   27 1
    29   13   28 1
    30   13   30 1
    31   14   29 1
@<TRIPOS>MOLECULE
ZINC63180504
   44    44     0     0     0
SMALL
USER_CHARGES

@<TRIPOS>ATOM
      1 C1         -0.0173    1.4248    0.0099 C.3       1 <0>         0.0469
      2 O1          0.0021   -0.0041    0.0020 O.3       1 <0>        -0.3479
      3 C2         -1.1887   -0.6313    0.0100 C.2       1 <0>         0.6406
      4 O2         -2.2161    0.0162    0.0233 O.2       1 <0>        -0.4905
      5 N1         -1.2409   -1.9781    0.0033 N.am      1 <0>        -0.6465
      6 C3         -2.4333   -2.6062    0.0113 C.2       1 <0>         0.5154
      7 O3         -3.4589   -1.9599    0.0246 O.2       1 <0>        -0.4507
      8 C4         -2.4918   -4.1121    0.0038 C.3       1 <0>        -0.0252
      9 N2         -3.8947   -4.5477    0.0148 N.4       1 <0>        -0.3715
     10 C5         -4.5245   -4.1326    1.2740 C.3       1 <0>        -0.0279
     11 C6         -6.0067   -4.5124    1.2568 C.3       1 <0>        -0.1393
     12 C7         -6.1374   -6.0295    1.0948 C.3       1 <0>        -0.1306
     13 C8         -5.4130   -6.4608   -0.1837 C.3       1 <0>        -0.1302
     14 H1         -5.8946   -6.0022   -1.0473 H         1 <0>         0.1291
     15 C9         -3.9528   -6.0088   -0.1131 C.3       1 <0>         0.0096
     16 C10        -5.4706   -7.9611   -0.3130 C.2       1 <0>         0.5352
     17 O4         -4.4444   -8.6065   -0.3494 O.2       1 <0>        -0.5123
     18 N3         -6.6625   -8.5857   -0.3884 N.am      1 <0>        -0.7247
     19 C11        -6.7186  -10.0442   -0.5142 C.3       1 <0>         0.0890
     20 C12        -8.1793  -10.4947   -0.5796 C.3       1 <0>        -0.0202
     21 N4         -8.2354  -11.9572   -0.7057 N.4       1 <0>        -0.6324
     22 H2          1.0053    1.8021    0.0021 H         1 <0>         0.1208
     23 H3         -0.5445    1.7859   -0.8732 H         1 <0>         0.0716
     24 H4         -0.5275    1.7763    0.9067 H         1 <0>         0.0716
     25 H5         -0.4204   -2.4952   -0.0073 H         1 <0>         0.4321
     26 H6         -2.0010   -4.4903   -0.8930 H         1 <0>         0.1745
     27 H7         -1.9840   -4.4998    0.8869 H         1 <0>         0.1734
     28 H8         -4.0315   -4.6319    2.1082 H         1 <0>         0.1332
     29 H9         -4.4278   -3.0530    1.3895 H         1 <0>         0.1519
     30 H10        -6.4720   -4.2049    2.1933 H         1 <0>         0.1235
     31 H11        -6.5006   -4.0134    0.4231 H         1 <0>         0.0962
     32 H12        -5.6884   -6.5279    1.9539 H         1 <0>         0.0921
     33 H13        -7.1912   -6.2992    1.0252 H         1 <0>         0.0988
     34 H14        -3.4340   -6.3144   -1.0218 H         1 <0>         0.1448
     35 H15        -3.4720   -6.4681    0.7506 H         1 <0>         0.1443
     36 H16        -7.4833   -8.0695   -0.3593 H         1 <0>         0.4135
     37 H17        -6.2028  -10.3505   -1.4243 H         1 <0>         0.0968
     38 H18        -6.2354  -10.5022    0.3489 H         1 <0>         0.0968
     39 H19        -8.6950  -10.1884    0.3305 H         1 <0>         0.1429
     40 H20        -8.6624  -10.0368   -1.4427 H         1 <0>         0.1430
     41 H21        -9.1987  -12.2543   -0.7488 H         1 <0>         0.4486
     42 H22        -7.7580  -12.2407   -1.5481 H         1 <0>         0.4409
     43 H23        -7.7882  -12.3811    0.0933 H         1 <0>         0.4408
     44 H24        -4.3836   -4.1236   -0.7592 H         1 <0>         0.4318
@<TRIPOS>BOND
     1    1    2 1
     2    1   22 1
     3    1   23 1
     4    1   24 1
     5    2    3 1
     6    3    4 2
     7    3    5 am
     8    5    6 am
     9    5   25 1
    10    6    7 2
    11    6    8 1
    12    8    9 1
    13    8   26 1
    14    8   27 1
    15    9   15 1
    16    9   10 1
    17    9   44 1
    18   10   11 1
    19   10   28 1
    20   10   29 1
    21   11   12 1
    22   11   30 1
    23   11   31 1
    24   12   13 1
    25   12   32 1
    26   12   33 1
    27   13   14 1
    28   13   15 1
    29   13   16 1
    30   15   34 1
    31   15   35 1
    32   16   17 2
    33   16   18 am
    34   18   19 1
    35   18   36 1
    36   19   20 1
    37   19   37 1
    38   19   38 1
    39   20   21 1
    40   20   39 1
    41   20   40 1
    42   21   41 1
    43   21   42 1
    44   21   43 1
@<TRIPOS>MOLECULE
ZINC36263527
   31    32     0     0     0
SMALL
USER_CHARGES

@<TRIPOS>ATOM
      1 C1          1.0710   -0.4533   -0.7675 C.ar      1 <0>        -0.1037
      2 C2          2.2559    0.2568   -0.7811 C.ar      1 <0>        -0.0759
      3 C3          2.3782    1.4156   -0.0354 C.ar      1 <0>        -0.0435
      4 C4          1.3133    1.8666    0.7270 C.ar      1 <0>        -0.0110
      5 C5          0.1262    1.1593    0.7441 C.ar      1 <0>        -0.1256
      6 C6          0.0017   -0.0035   -0.0046 C.ar      1 <0>         0.1728
      7 N1         -1.2000   -0.7215    0.0101 N.am      1 <0>        -0.6782
      8 C7         -1.1839   -2.0648   -0.0990 C.2       1 <0>         0.7092
      9 O1         -0.1242   -2.6609   -0.1129 O.2       1 <0>        -0.5551
     10 N2         -2.3423   -2.7473   -0.1927 N.am      1 <0>        -0.7312
     11 C8         -2.3247   -4.2074   -0.3113 C.3       1 <0>         0.1513
     12 C9         -2.6969   -4.7160   -1.7140 C.3       1 <0>        -0.1652
     13 C10        -4.1595   -4.7190   -1.2390 C.3       1 <0>        -0.0092
     14 C11        -3.6130   -4.8816    0.1892 C.3       1 <0>        -0.1569
     15 N3         -4.9289   -5.8782   -1.7102 N.4       1 <0>        -0.6302
     16 Cl1         1.4703    3.3209    1.6620 Cl        1 <0>        -0.0340
     17 Cl2         3.8686    2.3055   -0.0549 Cl        1 <0>        -0.0378
     18 H1          0.9750   -1.3554   -1.3534 H         1 <0>         0.1493
     19 H2          3.0878   -0.0932   -1.3742 H         1 <0>         0.1498
     20 H3         -0.7040    1.5108    1.3388 H         1 <0>         0.1467
     21 H4         -2.0443   -0.2523    0.0988 H         1 <0>         0.4122
     22 H5         -3.1876   -2.2717   -0.1816 H         1 <0>         0.4015
     23 H6         -1.4144   -4.6536    0.0891 H         1 <0>         0.1328
     24 H7         -2.4968   -3.9955   -2.5070 H         1 <0>         0.1075
     25 H8         -2.3078   -5.7098   -1.9356 H         1 <0>         0.1191
     26 H9         -4.6742   -3.7725   -1.4044 H         1 <0>         0.1617
     27 H10        -3.4743   -5.9207    0.4879 H         1 <0>         0.1234
     28 H11        -4.1525   -4.2948    0.9326 H         1 <0>         0.1098
     29 H12        -4.5005   -6.7265   -1.3712 H         1 <0>         0.4353
     30 H13        -5.8747   -5.8174   -1.3640 H         1 <0>         0.4371
     31 H14        -4.9400   -5.8869   -2.7191 H         1 <0>         0.4380
@<TRIPOS>BOND
     1    1    6 ar
     2    1    2 ar
     3    1   18 1
     4    2    3 ar
     5    2   19 1
     6    3    4 ar
     7    3   17 1
     8    4    5 ar
     9    4   16 1
    10    5    6 ar
    11    5   20 1
    12    6    7 1
    13    7    8 am
    14    7   21 1
    15    8    9 2
    16    8   10 am
    17   10   11 1
    18   10   22 1
    19   11   14 1
    20   11   12 1
    21   11   23 1
    22   12   13 1
    23   12   24 1
    24   12   25 1
    25   13   14 1
    26   13   15 1
    27   13   26 1
    28   14   27 1
    29   14   28 1
    30   15   29 1
    31   15   30 1
    32   15   31 1
@<TRIPOS>MOLECULE
ZINC38040997
   41    42     0     0     0
SMALL
USER_CHARGES

@<TRIPOS>ATOM
      1 C1         -0.0184    1.5028    0.0103 C.3       1 <0>        -0.1263
      2 C2          0.0021   -0.0041    0.0020 C.ar      1 <0>        -0.0553
      3 C3          0.0057   -0.6882   -1.2000 C.ar      1 <0>        -0.0578
      4 C4          0.0240   -2.0707   -1.2121 C.ar      1 <0>        -0.6297
      5 C5          0.0391   -2.7732   -0.0230 C.ar      1 <0>        -0.1054
      6 C6          0.0360   -2.0893    1.1859 C.ar      1 <0>         0.1887
      7 C7          0.0228   -0.7000    1.1944 C.ar      1 <0>        -0.0913
      8 C8          0.0251    0.0464    2.5036 C.3       1 <0>        -0.1208
      9 N1          0.0513   -2.7965    2.3902 N.pl3     1 <0>        -0.7428
     10 C9          0.0706   -4.2614    2.3793 C.3       1 <0>         0.1402
     11 C10        -1.3616   -4.7916    2.2667 C.3       1 <0>        -0.1723
     12 C11        -1.3407   -6.3201    2.3359 C.3       1 <0>        -0.0062
     13 N2         -0.7581   -6.7478    3.6134 N.4       1 <0>        -0.5064
     14 C12         0.6385   -6.3041    3.6972 C.3       1 <0>        -0.0022
     15 C13         0.6938   -4.7750    3.6805 C.3       1 <0>        -0.1569
     16 S1          0.0274   -2.9373   -2.7463 S.o2      1 <0>         2.7004
     17 O1         -0.5050   -4.2285   -2.4845 O.2       1 <0>        -0.9690
     18 O2         -0.5403   -2.0602   -3.7094 O.2       1 <0>        -0.9553
     19 N3          1.6101   -3.1571   -3.1810 N.pl3     1 <0>        -1.2494
     20 H1          1.0042    1.8801    0.0026 H         1 <0>         0.0806
     21 H2         -0.5455    1.8639   -0.8728 H         1 <0>         0.0776
     22 H3         -0.5286    1.8543    0.9071 H         1 <0>         0.0748
     23 H4         -0.0061   -0.1414   -2.1312 H         1 <0>         0.1450
     24 H5          0.0530   -3.8531   -0.0331 H         1 <0>         0.1361
     25 H6         -1.0019    0.2123    2.8290 H         1 <0>         0.0781
     26 H7          0.5541   -0.5398    3.2551 H         1 <0>         0.0634
     27 H8          0.5247    1.0064    2.3736 H         1 <0>         0.0818
     28 H9          0.0491   -2.3178    3.2339 H         1 <0>         0.4065
     29 H10         0.6581   -4.6118    1.5306 H         1 <0>         0.0974
     30 H11        -1.9610   -4.3983    3.0878 H         1 <0>         0.0935
     31 H12        -1.7929   -4.4761    1.3167 H         1 <0>         0.1178
     32 H13        -2.3589   -6.7009    2.2558 H         1 <0>         0.1384
     33 H14        -0.7414   -6.7124    1.5143 H         1 <0>         0.1353
     34 H15        -1.2844   -6.3441    4.3738 H         1 <0>         0.4284
     35 H16         1.0816   -6.6731    4.6222 H         1 <0>         0.1391
     36 H17         1.1957   -6.6967    2.8466 H         1 <0>         0.1348
     37 H18         1.7317   -4.4476    3.7410 H         1 <0>         0.1193
     38 H19         0.1371   -4.3813    4.5309 H         1 <0>         0.0945
     39 H20         2.3205   -2.8235   -2.6109 H         1 <0>         0.4170
     40 H21         1.8268   -3.6195   -4.0057 H         1 <0>         0.4237
     41 H22        -0.7948   -7.7540    3.6786 H         1 <0>         0.4347
@<TRIPOS>BOND
     1    1    2 1
     2    1   20 1
     3    1   21 1
     4    1   22 1
     5    2    7 ar
     6    2    3 ar
     7    3    4 ar
     8    3   23 1
     9    4    5 ar
    10    4   16 1
    11    5    6 ar
    12    5   24 1
    13    6    7 ar
    14    6    9 1
    15    7    8 1
    16    8   25 1
    17    8   26 1
    18    8   27 1
    19    9   10 1
    20    9   28 1
    21   10   15 1
    22   10   11 1
    23   10   29 1
    24   11   12 1
    25   11   30 1
    26   11   31 1
    27   12   13 1
    28   12   32 1
    29   12   33 1
    30   13   14 1
    31   13   34 1
    32   13   41 1
    33   14   15 1
    34   14   35 1
    35   14   36 1
    36   15   37 1
    37   15   38 1
    38   16   17 2
    39   16   18 2
    40   16   19 1
    41   19   39 1
    42   19   40 1
@<TRIPOS>MOLECULE
ZINC44493370
   46    48     0     0     0
SMALL
USER_CHARGES

@<TRIPOS>ATOM
      1 C1         -0.0685    1.2881    0.0214 C.ar      1 <0>         0.0033
      2 C2          1.0763    2.0754    0.0224 C.ar      1 <0>        -0.1766
      3 C3          2.3149    1.4713   -0.0012 C.ar      1 <0>         0.2238
      4 N1          2.4176    0.1481   -0.0331 N.ar      1 <0>        -0.5480
      5 C4          1.3634   -0.6466   -0.0370 C.ar      1 <0>         0.4534
      6 C5          0.0680   -0.1018   -0.0072 C.ar      1 <0>        -0.2657
      7 C6         -1.1187   -0.9766   -0.0056 C.2       1 <0>         0.5914
      8 O1         -0.9849   -2.1826    0.0748 O.2       1 <0>        -0.5753
      9 N2         -2.3518   -0.4398   -0.0933 N.am      1 <0>        -0.8386
     10 N3          1.5340   -2.0183   -0.0711 N.pl3     1 <0>        -0.7322
     11 C7          2.8761   -2.5861   -0.2217 C.3       1 <0>         0.1042
     12 C8          2.7859   -4.1134   -0.2295 C.3       1 <0>         0.0192
     13 H1          2.4327   -4.4610    0.7413 H         1 <0>         0.1441
     14 C9          4.1694   -4.7040   -0.5097 C.3       1 <0>        -0.1365
     15 C10         4.0741   -6.2324   -0.5163 C.3       1 <0>        -0.1379
     16 C11         3.0369   -6.6649   -1.5567 C.3       1 <0>        -0.1477
     17 C12         1.6953   -6.0016   -1.2377 C.3       1 <0>        -0.0073
     18 N4          1.8470   -4.5421   -1.2732 N.4       1 <0>        -0.5064
     19 C13         3.5975    2.2643    0.0165 C.3       1 <0>        -0.0765
     20 C14         3.3382    3.7147   -0.3842 C.3       1 <0>        -0.1220
     21 C15         2.1922    4.2582    0.4772 C.3       1 <0>        -0.1249
     22 C16         0.8985    3.5702    0.0458 C.3       1 <0>        -0.0744
     23 H2         -1.0476    1.7431    0.0469 H         1 <0>         0.1413
     24 H3         -2.4586    0.5222   -0.1575 H         1 <0>         0.4071
     25 H4         -3.1326   -1.0154   -0.0923 H         1 <0>         0.4120
     26 H5          0.7651   -2.6047    0.0047 H         1 <0>         0.4166
     27 H6          3.3126   -2.2430   -1.1597 H         1 <0>         0.0899
     28 H7          3.5025   -2.2634    0.6100 H         1 <0>         0.1108
     29 H8          4.5234   -4.3572   -1.4805 H         1 <0>         0.0928
     30 H9          4.8650   -4.3860    0.2669 H         1 <0>         0.1162
     31 H10         5.0451   -6.6571   -0.7713 H         1 <0>         0.0979
     32 H11         3.7693   -6.5829    0.4698 H         1 <0>         0.0835
     33 H12         3.3674   -6.3588   -2.5492 H         1 <0>         0.0891
     34 H13         2.9230   -7.7486   -1.5284 H         1 <0>         0.1138
     35 H14         0.9545   -6.3076   -1.9763 H         1 <0>         0.1345
     36 H15         1.3657   -6.3086   -0.2451 H         1 <0>         0.1313
     37 H16         0.9498   -4.1082   -1.1158 H         1 <0>         0.4284
     38 H17         4.0216    2.2391    1.0203 H         1 <0>         0.0933
     39 H18         4.3049    1.8191   -0.6831 H         1 <0>         0.0904
     40 H19         4.2369    4.3078   -0.2150 H         1 <0>         0.0802
     41 H20         3.0586    3.7596   -1.4367 H         1 <0>         0.0700
     42 H21         2.3891    4.0446    1.5277 H         1 <0>         0.0690
     43 H22         2.1019    5.3347    0.3315 H         1 <0>         0.0771
     44 H23         0.6230    3.9151   -0.9509 H         1 <0>         0.0803
     45 H24         0.1040    3.8268    0.7466 H         1 <0>         0.0785
     46 H25         2.1995   -4.2630   -2.1765 H         1 <0>         0.4263
@<TRIPOS>BOND
     1    1    6 ar
     2    1    2 ar
     3    1   23 1
     4    2   22 1
     5    2    3 ar
     6    3    4 ar
     7    3   19 1
     8    4    5 ar
     9    5    6 ar
    10    5   10 1
    11    6    7 1
    12    7    8 2
    13    7    9 am
    14    9   24 1
    15    9   25 1
    16   10   11 1
    17   10   26 1
    18   11   12 1
    19   11   27 1
    20   11   28 1
    21   12   13 1
    22   12   18 1
    23   12   14 1
    24   14   15 1
    25   14   29 1
    26   14   30 1
    27   15   16 1
    28   15   31 1
    29   15   32 1
    30   16   17 1
    31   16   33 1
    32   16   34 1
    33   17   18 1
    34   17   35 1
    35   17   36 1
    36   18   37 1
    37   18   46 1
    38   19   20 1
    39   19   38 1
    40   19   39 1
    41   20   21 1
    42   20   40 1
    43   20   41 1
    44   21   22 1
    45   21   42 1
    46   21   43 1
    47   22   44 1
    48   22   45 1
@<TRIPOS>MOLECULE
ZINC53035919
   38    40     0     0     0
SMALL
USER_CHARGES

@<TRIPOS>ATOM
      1 C1         -0.0184    1.5028    0.0103 C.3       1 <0>        -0.0847
      2 C2          0.0021   -0.0041    0.0020 C.2       1 <0>         0.0201
      3 C3         -1.0783   -0.8055    0.0027 C.2       1 <0>        -0.2212
      4 C4         -0.6011   -2.1363   -0.0068 C.2       1 <0>        -0.1598
      5 C5          0.7423   -2.0686   -0.0126 C.2       1 <0>        -0.0728
      6 O1          1.1020   -0.7746   -0.0131 O.3       1 <0>        -0.1703
      7 C6          1.6840   -3.2450   -0.0226 C.3       1 <0>         0.2069
      8 N1          1.9828   -3.6196   -1.4070 N.pl3     1 <0>        -0.7367
      9 C7          2.8398   -4.6904   -1.6714 C.ar      1 <0>         0.2859
     10 C8          3.4042   -5.4038   -0.6229 C.ar      1 <0>        -0.2229
     11 C9          4.2545   -6.4665   -0.8900 C.ar      1 <0>         0.2706
     12 C10         4.5386   -6.8139   -2.2052 C.ar      1 <0>        -0.1537
     13 C11         3.9759   -6.1019   -3.2465 C.ar      1 <0>        -0.0078
     14 C12         3.1237   -5.0463   -2.9841 C.ar      1 <0>        -0.1729
     15 N2          2.5509   -4.3321   -4.0406 N.4       1 <0>        -0.5471
     16 C13         5.4620   -7.9697   -2.4919 C.3       1 <0>        -0.0769
     17 C14         6.5425   -8.0404   -1.4124 C.3       1 <0>        -0.1425
     18 C15         5.9110   -7.9572   -0.0489 C.2       1 <0>         0.5193
     19 O2          6.3858   -8.5891    0.8711 O.2       1 <0>        -0.4927
     20 N3          4.8262   -7.1896    0.1616 N.am      1 <0>        -0.6651
     21 H1          1.0042    1.8801    0.0026 H         1 <0>         0.0800
     22 H2         -0.5455    1.8639   -0.8728 H         1 <0>         0.0927
     23 H3         -0.5286    1.8543    0.9071 H         1 <0>         0.0945
     24 H4         -2.1119   -0.4924    0.0097 H         1 <0>         0.1560
     25 H5         -1.2002   -3.0349   -0.0086 H         1 <0>         0.1533
     26 H6          2.6082   -2.9750    0.4883 H         1 <0>         0.0929
     27 H7          1.2186   -4.0873    0.4893 H         1 <0>         0.1061
     28 H8          1.5856   -3.1239   -2.1401 H         1 <0>         0.3972
     29 H9          3.1821   -5.1318    0.3984 H         1 <0>         0.1522
     30 H10         4.1987   -6.3738   -4.2677 H         1 <0>         0.1550
     31 H11         3.1556   -3.5657   -4.2954 H         1 <0>         0.4313
     32 H12         2.4307   -4.9438   -4.8340 H         1 <0>         0.4410
     33 H13         4.8911   -8.8982   -2.4957 H         1 <0>         0.0928
     34 H14         5.9303   -7.8275   -3.4658 H         1 <0>         0.1003
     35 H15         7.0842   -8.9819   -1.5036 H         1 <0>         0.1209
     36 H16         7.2374   -7.2106   -1.5408 H         1 <0>         0.1112
     37 H17         4.4379   -7.1374    1.0490 H         1 <0>         0.4201
     38 H18         1.6529   -3.9714   -3.7550 H         1 <0>         0.4269
@<TRIPOS>BOND
     1    1    2 1
     2    1   21 1
     3    1   22 1
     4    1   23 1
     5    2    6 1
     6    2    3 2
     7    3    4 1
     8    3   24 1
     9    4    5 2
    10    4   25 1
    11    5    6 1
    12    5    7 1
    13    7    8 1
    14    7   26 1
    15    7   27 1
    16    8    9 1
    17    8   28 1
    18    9   14 ar
    19    9   10 ar
    20   10   11 ar
    21   10   29 1
    22   11   20 1
    23   11   12 ar
    24   12   13 ar
    25   12   16 1
    26   13   14 ar
    27   13   30 1
    28   14   15 1
    29   15   31 1
    30   15   32 1
    31   15   38 1
    32   16   17 1
    33   16   33 1
    34   16   34 1
    35   17   18 1
    36   17   35 1
    37   17   36 1
    38   18   19 2
    39   18   20 am
    40   20   37 1
@<TRIPOS>MOLECULE
ZINC63174545
   40    42     0     0     0
SMALL
USER_CHARGES

@<TRIPOS>ATOM
      1 C1          0.2015    0.9446   -1.7624 C.ar      1 <0>        -0.1134
      2 C2          1.3881    1.6747   -1.7941 C.ar      1 <0>        -0.1060
      3 C3          2.5277    1.1837   -1.2338 C.ar      1 <0>        -0.1180
      4 C4          2.5107   -0.0759   -0.6144 C.ar      1 <0>        -0.0628
      5 C5          1.3049   -0.8190   -0.5815 C.ar      1 <0>        -0.0351
      6 C6          0.1480   -0.2798   -1.1705 C.ar      1 <0>        -0.0990
      7 C7          1.2861   -2.0795    0.0389 C.ar      1 <0>        -0.1151
      8 C8          2.4216   -2.5770    0.6023 C.ar      1 <0>        -0.0977
      9 C9          3.6118   -1.8563    0.5762 C.ar      1 <0>        -0.1261
     10 C10         3.6720   -0.6166   -0.0229 C.ar      1 <0>         0.1558
     11 N1          4.8714    0.0981   -0.0439 N.am      1 <0>        -0.6698
     12 C11         6.0469   -0.5554    0.0435 C.2       1 <0>         0.7064
     13 O1          6.0685   -1.7710    0.0377 O.2       1 <0>        -0.5571
     14 N2          7.1984    0.1387    0.1374 N.am      1 <0>        -0.7437
     15 C12         8.4761   -0.5716    0.2325 C.3       1 <0>         0.1463
     16 H1          8.3481   -1.4960    0.7957 H         1 <0>         0.1121
     17 C13         9.0138   -0.8833   -1.1795 C.3       1 <0>        -0.1403
     18 C14         9.9918    0.2799   -1.4788 C.3       1 <0>        -0.1250
     19 C15        10.6656    0.5219   -0.1053 C.3       1 <0>        -0.1414
     20 C16         9.5260    0.3213    0.9166 C.3       1 <0>         0.0120
     21 H2          9.0848    1.2832    1.1779 H         1 <0>         0.1501
     22 N3         10.0410   -0.3409    2.1225 N.4       1 <0>        -0.6321
     23 H3         -0.6899    1.3585   -2.2102 H         1 <0>         0.1284
     24 H4          1.4040    2.6439   -2.2703 H         1 <0>         0.1262
     25 H5          3.4403    1.7603   -1.2661 H         1 <0>         0.1173
     26 H6         -0.7786   -0.8343   -1.1535 H         1 <0>         0.1333
     27 H7          0.3716   -2.6533    0.0693 H         1 <0>         0.1318
     28 H8          2.3981   -3.5465    1.0774 H         1 <0>         0.1291
     29 H9          4.4984   -2.2732    1.0307 H         1 <0>         0.1449
     30 H10         4.8585    1.0649   -0.1214 H         1 <0>         0.4088
     31 H11         7.1811    1.1085    0.1420 H         1 <0>         0.4038
     32 H12         9.5420   -1.8368   -1.1847 H         1 <0>         0.0913
     33 H13         8.1996   -0.8932   -1.9041 H         1 <0>         0.0927
     34 H14        10.7296   -0.0178   -2.2239 H         1 <0>         0.0937
     35 H15         9.4487    1.1671   -1.8044 H         1 <0>         0.0832
     36 H16        11.4605   -0.2046    0.0630 H         1 <0>         0.0951
     37 H17        11.0569    1.5376   -0.0460 H         1 <0>         0.1046
     38 H18        10.4678   -1.2190    1.8677 H         1 <0>         0.4372
     39 H19        10.7282    0.2515    2.5640 H         1 <0>         0.4407
     40 H20         9.2808   -0.5100    2.7640 H         1 <0>         0.4381
@<TRIPOS>BOND
     1    1    6 ar
     2    1    2 ar
     3    1   23 1
     4    2    3 ar
     5    2   24 1
     6    3    4 ar
     7    3   25 1
     8    4   10 ar
     9    4    5 ar
    10    5    6 ar
    11    5    7 ar
    12    6   26 1
    13    7    8 ar
    14    7   27 1
    15    8    9 ar
    16    8   28 1
    17    9   10 ar
    18    9   29 1
    19   10   11 1
    20   11   12 am
    21   11   30 1
    22   12   13 2
    23   12   14 am
    24   14   15 1
    25   14   31 1
    26   15   16 1
    27   15   20 1
    28   15   17 1
    29   17   18 1
    30   17   32 1
    31   17   33 1
    32   18   19 1
    33   18   34 1
    34   18   35 1
    35   19   20 1
    36   19   36 1
    37   19   37 1
    38   20   21 1
    39   20   22 1
    40   22   38 1
    41   22   39 1
    42   22   40 1
@<TRIPOS>MOLECULE
ZINC19515987
   32    33     0     0     0
SMALL
USER_CHARGES
4-[(2-aminophenoxy)methyl]-3-fluoro-benzamide
@<TRIPOS>ATOM
      1 C1         -5.4595   -2.9992    0.0092 C.ar      1 <0>        -0.0992
      2 C2         -5.6616   -1.6315    0.0185 C.ar      1 <0>        -0.1485
      3 C3         -4.5807   -0.7690    0.0239 C.ar      1 <0>        -0.1577
      4 C4         -3.2912   -1.2742    0.0094 C.ar      1 <0>         0.0420
      5 C5         -3.0865   -2.6522    0.0005 C.ar      1 <0>         0.2117
      6 C6         -4.1757   -3.5114    0.0004 C.ar      1 <0>        -0.1779
      7 N1         -1.7856   -3.1683   -0.0079 N.pl3     1 <0>        -0.8954
      8 O1         -2.2271   -0.4270    0.0094 O.3       1 <0>        -0.3160
      9 C7         -2.5127    0.9732    0.0188 C.3       1 <0>         0.1042
     10 C8         -1.2209    1.7493    0.0174 C.ar      1 <0>        -0.0980
     11 C9         -0.0126    1.0758    0.0080 C.ar      1 <0>        -0.0752
     12 C10         1.1736    1.7799    0.0004 C.ar      1 <0>        -0.0682
     13 C11         1.1545    3.1757    0.0081 C.ar      1 <0>        -0.1074
     14 C12        -0.0664    3.8510    0.0234 C.ar      1 <0>        -0.1192
     15 C13        -1.2483    3.1345    0.0308 C.ar      1 <0>         0.1002
     16 F1         -2.4318    3.7858    0.0452 F         1 <0>        -0.1315
     17 C14         2.4229    3.9354    0.0005 C.2       1 <0>         0.5643
     18 O2          3.4851    3.3447   -0.0124 O.2       1 <0>        -0.5403
     19 N2          2.4013    5.2830    0.0080 N.am      1 <0>        -0.8716
     20 H1         -6.3067   -3.6690    0.0092 H         1 <0>         0.1221
     21 H2         -6.6665   -1.2357    0.0260 H         1 <0>         0.1209
     22 H3         -4.7422    0.2988    0.0353 H         1 <0>         0.1250
     23 H4         -4.0206   -4.5802   -0.0061 H         1 <0>         0.1258
     24 H5         -1.6257   -4.2566   -0.0149 H         1 <0>         0.4166
     25 H6         -0.9231   -2.4856   -0.0075 H         1 <0>         0.4202
     26 H7         -3.0982    1.2340   -0.8752 H         1 <0>         0.0826
     27 H8         -3.0900    1.2236    0.9210 H         1 <0>         0.0825
     28 H9          0.0021   -0.0041    0.0020 H         1 <0>         0.1488
     29 H10         2.1158    1.2521   -0.0118 H         1 <0>         0.1467
     30 H11        -0.0878    4.9308    0.0290 H         1 <0>         0.1430
     31 H12         3.3450    5.8482    0.0023 H         1 <0>         0.4304
     32 H13         1.4400    5.8176    0.0198 H         1 <0>         0.4191
@<TRIPOS>BOND
     1    1    6 ar
     2    1    2 ar
     3    1   20 1
     4    2    3 ar
     5    2   21 1
     6    3    4 ar
     7    3   22 1
     8    4    5 ar
     9    4    8 1
    10    5    6 ar
    11    5    7 1
    12    6   23 1
    13    7   24 1
    14    7   25 1
    15    8    9 1
    16    9   10 1
    17    9   26 1
    18    9   27 1
    19   10   15 ar
    20   10   11 ar
    21   11   12 ar
    22   11   28 1
    23   12   13 ar
    24   12   29 1
    25   13   14 ar
    26   13   17 1
    27   14   15 ar
    28   14   30 1
    29   15   16 1
    30   17   18 2
    31   17   19 am
    32   19   31 1
    33   19   32 1
@<TRIPOS>MOLECULE
ZINC13600698
   43    46     0     0     0
SMALL
USER_CHARGES

@<TRIPOS>ATOM
      1 C1         -3.1433   -0.4509    3.4571 C.ar      1 <0>         0.0154
      2 C2         -3.7207    0.2521    4.4989 C.ar      1 <0>        -0.2298
      3 C3         -4.5983    1.2917    4.2109 C.ar      1 <0>         0.4078
      4 N1         -4.8823    1.6099    2.9578 N.ar      1 <0>        -0.5372
      5 C4         -4.3499    0.9608    1.9400 C.ar      1 <0>         0.1522
      6 C5         -3.4664   -0.0869    2.1511 C.ar      1 <0>         0.0108
      7 N2         -2.9047   -0.7713    1.0643 N.pl3     1 <0>        -0.6211
      8 C6         -2.7832   -2.1130    1.1028 C.2       1 <0>         0.5572
      9 S1         -3.4401   -2.9947    2.4151 S.2       1 <0>        -0.6033
     10 N3         -2.1445   -2.7606    0.1083 N.pl3     1 <0>        -0.6734
     11 C7         -2.1093   -4.2251    0.0918 C.3       1 <0>         0.1918
     12 C8         -1.3889   -4.7038   -1.1703 C.3       1 <0>        -0.1157
     13 C9         -1.3522   -6.2333   -1.1874 C.3       1 <0>        -0.0770
     14 C10        -2.7820   -6.7779   -1.1787 C.3       1 <0>        -0.1138
     15 C11        -3.5023   -6.2992    0.0834 C.3       1 <0>        -0.0757
     16 C12        -3.5391   -4.7697    0.1006 C.3       1 <0>        -0.1460
     17 C13        -2.7562   -6.8053    1.3195 C.3       1 <0>        -0.1072
     18 C14        -1.3265   -6.2607    1.3107 C.3       1 <0>        -0.0762
     19 C15        -0.6061   -6.7394    0.0487 C.3       1 <0>        -0.1138
     20 C16        -1.3632   -4.7313    1.3279 C.3       1 <0>        -0.1451
     21 N4         -5.1854    2.0054    5.2524 N.pl3     1 <0>        -0.8500
     22 H1         -2.4548   -1.2600    3.6510 H         1 <0>         0.1520
     23 H2         -3.4930   -0.0033    5.5232 H         1 <0>         0.1357
     24 H3         -4.6051    1.2487    0.9308 H         1 <0>         0.1543
     25 H4         -2.6035   -0.2792    0.2845 H         1 <0>         0.4062
     26 H5         -1.7081   -2.2570   -0.5966 H         1 <0>         0.3970
     27 H6         -1.9205   -4.3432   -2.0509 H         1 <0>         0.0670
     28 H7         -0.3703   -4.3158   -1.1765 H         1 <0>         0.0673
     29 H8         -0.8390   -6.5743   -2.0866 H         1 <0>         0.0746
     30 H9         -3.3135   -6.4173   -2.0593 H         1 <0>         0.0604
     31 H10        -2.7558   -7.8675   -1.1909 H         1 <0>         0.0653
     32 H11        -4.5209   -6.6871    0.0896 H         1 <0>         0.0726
     33 H12        -4.0523   -4.4287    0.9997 H         1 <0>         0.1250
     34 H13        -4.0706   -4.4091   -0.7801 H         1 <0>         0.0518
     35 H14        -3.2694   -6.4643    2.2186 H         1 <0>         0.0706
     36 H15        -2.7301   -7.8949    1.3073 H         1 <0>         0.0595
     37 H16        -0.7949   -6.6213    2.1914 H         1 <0>         0.0728
     38 H17        -0.5799   -7.8290    0.0364 H         1 <0>         0.0651
     39 H18         0.4125   -6.3514    0.0425 H         1 <0>         0.0606
     40 H19        -0.3446   -4.3433    1.3217 H         1 <0>         0.0522
     41 H20        -1.8764   -4.3902    2.2271 H         1 <0>         0.1263
     42 H21        -4.9813    1.7766    6.1727 H         1 <0>         0.4097
     43 H22        -5.7983    2.7316    5.0577 H         1 <0>         0.4044
@<TRIPOS>BOND
     1    1    6 ar
     2    1    2 ar
     3    1   22 1
     4    2    3 ar
     5    2   23 1
     6    3    4 ar
     7    3   21 1
     8    4    5 ar
     9    5    6 ar
    10    5   24 1
    11    6    7 1
    12    7    8 1
    13    7   25 1
    14    8    9 2
    15    8   10 1
    16   10   11 1
    17   10   26 1
    18   11   16 1
    19   11   20 1
    20   11   12 1
    21   12   13 1
    22   12   27 1
    23   12   28 1
    24   13   19 1
    25   13   14 1
    26   13   29 1
    27   14   15 1
    28   14   30 1
    29   14   31 1
    30   15   16 1
    31   15   17 1
    32   15   32 1
    33   16   33 1
    34   16   34 1
    35   17   18 1
    36   17   35 1
    37   17   36 1
    38   18   19 1
    39   18   20 1
    40   18   37 1
    41   19   38 1
    42   19   39 1
    43   20   40 1
    44   20   41 1
    45   21   42 1
    46   21   43 1
@<TRIPOS>MOLECULE
ZINC49505983
   37    39     0     0     0
SMALL
USER_CHARGES

@<TRIPOS>ATOM
      1 C1         -0.0187    1.5258    0.0104 C.3       1 <0>        -0.1661
      2 C2          0.0021   -0.0041    0.0020 C.3       1 <0>         0.1952
      3 H1          0.5293   -0.3651    0.8851 H         1 <0>         0.0899
      4 C3         -1.4117   -0.5257    0.0127 C.ar      1 <0>        -0.1025
      5 C4         -2.1410   -0.5687   -1.1610 C.ar      1 <0>        -0.0848
      6 C5         -3.4374   -1.0472   -1.1525 C.ar      1 <0>        -0.1491
      7 C6         -4.0059   -1.4838    0.0322 C.ar      1 <0>         0.1007
      8 C7         -3.2746   -1.4402    1.2071 C.ar      1 <0>        -0.1483
      9 C8         -1.9765   -0.9662    1.1952 C.ar      1 <0>        -0.0785
     10 F1         -5.2733   -1.9514    0.0418 F         1 <0>        -0.1374
     11 N1          0.6878   -0.4765   -1.2033 N.pl3     1 <0>        -0.7423
     12 C9          2.0831   -0.5913   -1.2154 C.ar      1 <0>         0.1854
     13 C10         2.8126   -0.2631   -0.0855 C.ar      1 <0>        -0.1739
     14 C11         4.2013   -0.3749   -0.0918 C.ar      1 <0>         0.1318
     15 C12         4.8386   -0.8188   -1.2435 C.ar      1 <0>        -0.1464
     16 C13         4.1175   -1.1473   -2.3710 C.ar      1 <0>        -0.1042
     17 C14         2.7340   -1.0412   -2.3638 C.ar      1 <0>         0.1379
     18 N2          1.9949   -1.3795   -3.5064 N.pl3     1 <0>        -0.8824
     19 C15         6.3182   -0.8298   -0.9339 C.3       1 <0>        -0.1094
     20 C16         6.3991   -0.3466    0.4984 C.2       1 <0>         0.5273
     21 O1          7.4094   -0.2016    1.1537 O.2       1 <0>        -0.5107
     22 N3          5.1417   -0.1077    0.9073 N.am      1 <0>        -0.6581
     23 H2          1.0039    1.9031    0.0027 H         1 <0>         0.0665
     24 H3         -0.5459    1.8868   -0.8726 H         1 <0>         0.0609
     25 H4         -0.5289    1.8773    0.9072 H         1 <0>         0.0667
     26 H5         -1.6975   -0.2278   -2.0848 H         1 <0>         0.1293
     27 H6         -4.0070   -1.0804   -2.0694 H         1 <0>         0.1378
     28 H7         -3.7171   -1.7802    2.1317 H         1 <0>         0.1389
     29 H8         -1.4043   -0.9363    2.1107 H         1 <0>         0.1358
     30 H9          0.1751   -0.7099   -1.9930 H         1 <0>         0.3948
     31 H10         2.3040    0.0807    0.8031 H         1 <0>         0.1268
     32 H11         4.6286   -1.4905   -3.2584 H         1 <0>         0.1284
     33 H12         1.0281   -1.3009   -3.4996 H         1 <0>         0.3904
     34 H13         2.4505   -1.6922   -4.3037 H         1 <0>         0.4005
     35 H14         6.7186   -1.8399   -1.0192 H         1 <0>         0.1193
     36 H15         6.8520   -0.1491   -1.5971 H         1 <0>         0.1193
     37 H16         4.9129    0.2130    1.7937 H         1 <0>         0.4103
@<TRIPOS>BOND
     1    1    2 1
     2    1   23 1
     3    1   24 1
     4    1   25 1
     5    2    3 1
     6    2    4 1
     7    2   11 1
     8    4    9 ar
     9    4    5 ar
    10    5    6 ar
    11    5   26 1
    12    6    7 ar
    13    6   27 1
    14    7    8 ar
    15    7   10 1
    16    8    9 ar
    17    8   28 1
    18    9   29 1
    19   11   12 1
    20   11   30 1
    21   12   17 ar
    22   12   13 ar
    23   13   14 ar
    24   13   31 1
    25   14   22 1
    26   14   15 ar
    27   15   16 ar
    28   15   19 1
    29   16   17 ar
    30   16   32 1
    31   17   18 1
    32   18   33 1
    33   18   34 1
    34   19   20 1
    35   19   35 1
    36   19   36 1
    37   20   21 2
    38   20   22 am
    39   22   37 1
@<TRIPOS>MOLECULE
ZINC53859411
   50    51     0     0     0
SMALL
NO_CHARGES

@<TRIPOS>ATOM
      1 C1         -0.1648    1.3608    0.3587 C.3       1 <0>        -0.1538
      2 C2         -0.1397   -0.1658    0.2607 C.3       1 <0>        -0.1387
      3 C3          0.6400   -0.5841   -0.9875 C.3       1 <0>        -0.0388
      4 N1          0.6640   -2.0498   -1.0815 N.4       1 <0>        -0.4499
      5 C4          1.4127   -2.4514   -2.2799 C.3       1 <0>        -0.0460
      6 H1          0.9827   -1.9666   -3.1564 H         1 <0>         0.0813
      7 C5          2.8764   -2.0313   -2.1315 C.3       1 <0>        -0.1103
      8 C6          3.6561   -2.4495   -3.3797 C.3       1 <0>        -0.1176
      9 C7          3.5758   -3.9683   -3.5461 C.3       1 <0>        -0.1213
     10 C8          2.1122   -4.3884   -3.6945 C.3       1 <0>        -0.1117
     11 C9          1.3324   -3.9702   -2.4464 C.3       1 <0>        -0.0866
     12 H2          1.7624   -4.4550   -1.5699 H         1 <0>         0.0708
     13 C10        -0.1313   -4.3903   -2.5948 C.3       1 <0>        -0.0967
     14 N2         -0.2157   -5.8553   -2.6638 N.4       1 <0>        -0.3231
     15 C11        -1.5978   -6.2509   -2.9598 C.3       1 <0>        -0.0786
     16 C12        -1.6755   -7.7714   -3.1128 C.3       1 <0>        -0.1185
     17 C13        -1.2213   -8.4341   -1.8091 C.3       1 <0>        -0.1468
     18 C14         0.1939   -7.9563   -1.4712 C.3       1 <0>         0.0941
     19 H3          0.8828   -8.2776   -2.2525 H         1 <0>         0.0435
     20 C15         0.2024   -6.4290   -1.3790 C.3       1 <0>        -0.0564
     21 O1          0.5993   -8.5131   -0.2191 O.3       1 <0>        -0.5783
     22 H4          0.8560    1.7374    0.4248 H         1 <0>         0.0564
     23 H5         -0.6478    1.7739   -0.5268 H         1 <0>         0.0565
     24 H6         -0.7203    1.6588    1.2479 H         1 <0>         0.0586
     25 H7          0.3433   -0.5789    1.1463 H         1 <0>         0.0663
     26 H8         -1.1605   -0.5425    0.1946 H         1 <0>         0.0664
     27 H9          0.1570   -0.1710   -1.8730 H         1 <0>         0.0810
     28 H10         1.6607   -0.2074   -0.9214 H         1 <0>         0.0828
     29 H11         1.1112   -2.4322   -0.2618 H         1 <0>         0.2692
     30 H12         2.9336   -0.9493   -2.0129 H         1 <0>         0.0591
     31 H13         3.3064   -2.5161   -1.2550 H         1 <0>         0.0615
     32 H14         3.2261   -1.9647   -4.2561 H         1 <0>         0.0601
     33 H15         4.6989   -2.1502   -3.2739 H         1 <0>         0.0597
     34 H16         4.1314   -4.2663   -4.4353 H         1 <0>         0.0578
     35 H17         4.0059   -4.4531   -2.6696 H         1 <0>         0.0592
     36 H18         1.6821   -3.9037   -4.5710 H         1 <0>         0.0549
     37 H19         2.0550   -5.4705   -3.8131 H         1 <0>         0.0660
     38 H20        -0.7005   -4.0336   -1.7364 H         1 <0>         0.0374
     39 H21        -0.5422   -3.9593   -3.5078 H         1 <0>         0.0318
     40 H22        -2.2484   -5.9345   -2.1444 H         1 <0>         0.0487
     41 H23        -1.9207   -5.7759   -3.8862 H         1 <0>         0.0425
     42 H24        -2.7028   -8.0633   -3.3308 H         1 <0>         0.0472
     43 H25        -1.0255   -8.0888   -3.9282 H         1 <0>         0.0548
     44 H26        -1.9014   -8.1575   -1.0034 H         1 <0>         0.0633
     45 H27        -1.2208   -9.5172   -1.9316 H         1 <0>         0.0522
     46 H28         1.2084   -6.0855   -1.1384 H         1 <0>         0.0500
     47 H29        -0.4866   -6.1088   -0.5973 H         1 <0>         0.0494
     48 H30         0.6139   -9.4799   -0.2048 H         1 <0>         0.3639
     49 H31        -0.2808   -2.3985   -1.1427 H         1 <0>         0.2458
     50 H32         0.3924   -6.1921   -3.3951 H         1 <0>         0.1810
@<TRIPOS>BOND
     1    1    2 1
     2    1   22 1
     3    1   23 1
     4    1   24 1
     5    2    3 1
     6    2   25 1
     7    2   26 1
     8    3    4 1
     9    3   27 1
    10    3   28 1
    11    4    5 1
    12    4   29 1
    13    4   49 1
    14    5    6 1
    15    5   11 1
    16    5    7 1
    17    7    8 1
    18    7   30 1
    19    7   31 1
    20    8    9 1
    21    8   32 1
    22    8   33 1
    23    9   10 1
    24    9   34 1
    25    9   35 1
    26   10   11 1
    27   10   36 1
    28   10   37 1
    29   11   12 1
    30   11   13 1
    31   13   14 1
    32   13   38 1
    33   13   39 1
    34   14   20 1
    35   14   15 1
    36   14   50 1
    37   15   16 1
    38   15   40 1
    39   15   41 1
    40   16   17 1
    41   16   42 1
    42   16   43 1
    43   17   18 1
    44   17   44 1
    45   17   45 1
    46   18   19 1
    47   18   20 1
    48   18   21 1
    49   20   46 1
    50   20   47 1
    51   21   48 1
@<TRIPOS>MOLECULE
ZINC63000861
   33    34     0     0     0
SMALL
USER_CHARGES

@<TRIPOS>ATOM
      1 C1         -0.0167    1.3781    0.0096 C.ar      1 <0>        -0.1169
      2 C2          1.1709    2.0855    0.0021 C.ar      1 <0>        -0.1210
      3 C3          2.3773    1.4107   -0.0130 C.ar      1 <0>        -0.1116
      4 C4          2.3960    0.0285   -0.0201 C.ar      1 <0>        -0.0898
      5 C5          1.2084   -0.6789   -0.0117 C.ar      1 <0>        -0.0866
      6 C6          0.0021   -0.0041    0.0020 C.ar      1 <0>        -0.1212
      7 C7          3.7112   -0.7071   -0.0376 C.3       1 <0>         0.1967
      8 H1          4.5034   -0.0434    0.3089 H         1 <0>         0.0988
      9 C8          4.0191   -1.1676   -1.4638 C.3       1 <0>         0.0631
     10 O1          2.9261   -1.9426   -1.9605 O.3       1 <0>        -0.5611
     11 N1          3.6301   -1.8734    0.8453 N.pl3     1 <0>        -0.7333
     12 C9          4.7953   -2.4050    1.4120 C.ar      1 <0>         0.1956
     13 C10         6.0267   -1.8233    1.1416 C.ar      1 <0>        -0.1486
     14 C11         7.1758   -2.3477    1.6999 C.ar      1 <0>        -0.1302
     15 C12         7.1001   -3.4567    2.5324 C.ar      1 <0>         0.1667
     16 C13         5.8691   -4.0389    2.8032 C.ar      1 <0>        -0.1222
     17 C14         4.7185   -3.5109    2.2493 C.ar      1 <0>        -0.1194
     18 Br1         3.0407   -4.2983    2.6245 Br        1 <0>        -0.0533
     19 N2          8.2652   -3.9880    3.0982 N.pl3     1 <0>        -0.8832
     20 H2         -0.9591    1.9053    0.0259 H         1 <0>         0.1217
     21 H3          1.1563    3.1654    0.0076 H         1 <0>         0.1230
     22 H4          3.3051    1.9634   -0.0196 H         1 <0>         0.1218
     23 H5          1.2231   -1.7588   -0.0176 H         1 <0>         0.1225
     24 H6         -0.9258   -0.5567    0.0082 H         1 <0>         0.1222
     25 H7          4.1672   -0.2970   -2.1027 H         1 <0>         0.0527
     26 H8          4.9241   -1.7751   -1.4620 H         1 <0>         0.0534
     27 H9          3.0527   -2.2685   -2.8621 H         1 <0>         0.3783
     28 H10         2.7694   -2.2773    1.0375 H         1 <0>         0.4044
     29 H11         6.0859   -0.9609    0.4943 H         1 <0>         0.1283
     30 H12         8.1335   -1.8955    1.4888 H         1 <0>         0.1258
     31 H13         5.8103   -4.9015    3.4503 H         1 <0>         0.1290
     32 H14         9.1253   -3.5815    2.9087 H         1 <0>         0.3975
     33 H15         8.2124   -4.7626    3.6796 H         1 <0>         0.3971
@<TRIPOS>BOND
     1    1    6 ar
     2    1    2 ar
     3    1   20 1
     4    2    3 ar
     5    2   21 1
     6    3    4 ar
     7    3   22 1
     8    4    5 ar
     9    4    7 1
    10    5    6 ar
    11    5   23 1
    12    6   24 1
    13    7    8 1
    14    7    9 1
    15    7   11 1
    16    9   10 1
    17    9   25 1
    18    9   26 1
    19   10   27 1
    20   11   12 1
    21   11   28 1
    22   12   17 ar
    23   12   13 ar
    24   13   14 ar
    25   13   29 1
    26   14   15 ar
    27   14   30 1
    28   15   16 ar
    29   15   19 1
    30   16   17 ar
    31   16   31 1
    32   17   18 1
    33   19   32 1
    34   19   33 1
@<TRIPOS>MOLECULE
ZINC36744123
   30    31     0     0     0
SMALL
USER_CHARGES

@<TRIPOS>ATOM
      1 C1         -0.0127    1.3887    0.0139 C.ar      1 <0>        -0.2053
      2 C2          1.0843    1.9548   -0.6074 C.ar      1 <0>        -0.0361
      3 C3          2.2917    1.2826   -0.6314 C.ar      1 <0>        -0.1274
      4 C4          2.4059    0.0344   -0.0297 C.ar      1 <0>         0.2232
      5 C5          1.3066   -0.5358    0.5948 C.ar      1 <0>        -0.2015
      6 C6          0.0953    0.1418    0.6168 C.ar      1 <0>         0.2447
      7 N1         -1.0144   -0.4298    1.2447 N.pl3     1 <0>        -0.8691
      8 N2          3.6288   -0.6463   -0.0547 N.am      1 <0>        -0.6721
      9 C7          3.6547   -1.9896    0.0523 C.2       1 <0>         0.7108
     10 O1          2.6141   -2.6185    0.0673 O.2       1 <0>        -0.5467
     11 N3          4.8340   -2.6358    0.1426 N.am      1 <0>        -0.6739
     12 C8          4.8677   -4.0372    0.1350 C.ar      1 <0>         0.1273
     13 C9          3.8382   -4.7539   -0.4586 C.ar      1 <0>        -0.0760
     14 C10         3.8731   -6.1349   -0.4657 C.ar      1 <0>        -0.1369
     15 C11         4.9344   -6.8054    0.1187 C.ar      1 <0>         0.1120
     16 C12         5.9632   -6.0939    0.7123 C.ar      1 <0>        -0.1675
     17 C13         5.9354   -4.7111    0.7168 C.ar      1 <0>         0.0979
     18 F1          6.9418   -4.0163    1.2910 F         1 <0>        -0.1286
     19 F2          4.9658   -8.1561    0.1102 F         1 <0>        -0.1296
     20 Cl1         3.6668    1.9971   -1.4139 Cl        1 <0>        -0.0743
     21 H1         -0.9537    1.9181    0.0346 H         1 <0>         0.1312
     22 H2          0.9979    2.9243   -1.0753 H         1 <0>         0.1380
     23 H3          1.3927   -1.5055    1.0626 H         1 <0>         0.1553
     24 H4         -1.8607    0.0441    1.2598 H         1 <0>         0.4018
     25 H5         -0.9386   -1.3005    1.6656 H         1 <0>         0.4022
     26 H6          4.4576   -0.1512   -0.1490 H         1 <0>         0.4134
     27 H7          5.6594   -2.1312    0.2130 H         1 <0>         0.4150
     28 H8          3.0097   -4.2322   -0.9144 H         1 <0>         0.1687
     29 H9          3.0715   -6.6924   -0.9274 H         1 <0>         0.1487
     30 H10         6.7897   -6.6188    1.1682 H         1 <0>         0.1545
@<TRIPOS>BOND
     1    1    6 ar
     2    1    2 ar
     3    1   21 1
     4    2    3 ar
     5    2   22 1
     6    3    4 ar
     7    3   20 1
     8    4    5 ar
     9    4    8 1
    10    5    6 ar
    11    5   23 1
    12    6    7 1
    13    7   24 1
    14    7   25 1
    15    8    9 am
    16    8   26 1
    17    9   10 2
    18    9   11 am
    19   11   12 1
    20   11   27 1
    21   12   17 ar
    22   12   13 ar
    23   13   14 ar
    24   13   28 1
    25   14   15 ar
    26   14   29 1
    27   15   16 ar
    28   15   19 1
    29   16   17 ar
    30   16   30 1
    31   17   18 1
@<TRIPOS>MOLECULE
ZINC40302123
   35    37     0     0     0
SMALL
USER_CHARGES

@<TRIPOS>ATOM
      1 C1         -0.0638    1.5019    0.0154 C.3       1 <0>        -0.1131
      2 C2         -0.0310   -0.0047    0.0056 C.ar      1 <0>        -0.0946
      3 C3         -0.6219   -0.7008   -1.0330 C.ar      1 <0>        -0.0924
      4 C4         -0.5940   -2.0816   -1.0455 C.ar      1 <0>        -0.1164
      5 C5          0.0285   -2.7716   -0.0136 C.ar      1 <0>         0.1609
      6 C6          0.6215   -2.0696    1.0289 C.ar      1 <0>        -0.0679
      7 C7          0.5947   -0.6876    1.0322 C.ar      1 <0>        -0.0899
      8 Cl1         1.4011   -2.9270    2.3215 Cl        1 <0>        -0.0685
      9 N1          0.0581   -4.1704   -0.0232 N.am      1 <0>        -0.6696
     10 C8         -0.0405   -4.8386   -1.1895 C.2       1 <0>         0.5939
     11 O1         -0.0539   -4.2273   -2.2416 O.2       1 <0>        -0.5168
     12 C9         -0.1317   -6.3045   -1.1907 C.2       1 <0>        -0.2193
     13 C10        -0.1353   -7.1226   -0.1001 C.2       1 <0>         0.1000
     14 N2         -0.2329   -8.4156   -0.4969 N.pl3     1 <0>        -0.5767
     15 H1         -0.2546   -9.1783    0.1020 H         1 <0>         0.4210
     16 C11        -0.2975   -8.4930   -1.8728 C.ar      1 <0>         0.1355
     17 C12        -0.2440   -7.1812   -2.3719 C.ar      1 <0>        -0.1113
     18 C13        -0.2969   -6.9510   -3.7443 C.ar      1 <0>        -0.0185
     19 C14        -0.4047   -8.0051   -4.6081 C.ar      1 <0>        -0.1990
     20 C15        -0.4621   -9.3099   -4.1235 C.ar      1 <0>         0.2396
     21 C16        -0.4022   -9.5565   -2.7622 C.ar      1 <0>        -0.2209
     22 N3         -0.5723  -10.3784   -5.0182 N.pl3     1 <0>        -0.8760
     23 H2          0.8122    1.8878   -0.5059 H         1 <0>         0.0728
     24 H3         -0.9672    1.8490   -0.4860 H         1 <0>         0.0697
     25 H4         -0.0600    1.8588    1.0454 H         1 <0>         0.0680
     26 H5         -1.1063   -0.1640   -1.8352 H         1 <0>         0.1327
     27 H6         -1.0561   -2.6242   -1.8569 H         1 <0>         0.1566
     28 H7          1.0594   -0.1409    1.8393 H         1 <0>         0.1363
     29 H8          0.1496   -4.6593    0.8096 H         1 <0>         0.4091
     30 H9         -0.0697   -6.7909    0.9256 H         1 <0>         0.1756
     31 H10        -0.2531   -5.9415   -4.1255 H         1 <0>         0.1346
     32 H11        -0.4459   -7.8252   -5.6722 H         1 <0>         0.1254
     33 H12        -0.4492  -10.5701   -2.3922 H         1 <0>         0.1205
     34 H13        -0.6085  -10.2099   -5.9728 H         1 <0>         0.4007
     35 H14        -0.6126  -11.2883   -4.6845 H         1 <0>         0.3981
@<TRIPOS>BOND
     1    1    2 1
     2    1   23 1
     3    1   24 1
     4    1   25 1
     5    2    7 ar
     6    2    3 ar
     7    3    4 ar
     8    3   26 1
     9    4    5 ar
    10    4   27 1
    11    5    6 ar
    12    5    9 1
    13    6    7 ar
    14    6    8 1
    15    7   28 1
    16    9   10 am
    17    9   29 1
    18   10   11 2
    19   10   12 1
    20   12   17 1
    21   12   13 2
    22   13   14 1
    23   13   30 1
    24   14   15 1
    25   14   16 1
    26   16   21 ar
    27   16   17 ar
    28   17   18 ar
    29   18   19 ar
    30   18   31 1
    31   19   20 ar
    32   19   32 1
    33   20   21 ar
    34   20   22 1
    35   21   33 1
    36   22   34 1
    37   22   35 1
@<TRIPOS>MOLECULE
ZINC42583091
   20    20     0     0     0
SMALL
USER_CHARGES

@<TRIPOS>ATOM
      1 C1         -0.0243    1.3644    0.0457 C.ar      1 <0>        -0.1080
      2 C2          1.1591    2.0797    0.0296 C.ar      1 <0>        -0.0596
      3 C3          2.3698    1.4145    0.0021 C.ar      1 <0>        -0.1190
      4 C4          2.3976    0.0251   -0.0091 C.ar      1 <0>         0.2039
      5 C5          1.2082   -0.6901    0.0075 C.ar      1 <0>        -0.1027
      6 C6         -0.0000   -0.0188    0.0346 C.ar      1 <0>        -0.0542
      7 Br1        -1.6211   -0.9922    0.0566 Br        1 <0>        -0.0319
      8 N1          3.6226   -0.6517   -0.0375 N.am      1 <0>        -0.6711
      9 C7          3.6908   -1.9010   -0.5386 C.2       1 <0>         0.7175
     10 O1          2.7125   -2.4016   -1.0589 O.2       1 <0>        -0.5635
     11 N2          4.8434   -2.5954   -0.4630 N.am      1 <0>        -0.5792
     12 N3          5.9425   -2.0330    0.1216 N.3       1 <0>        -0.6120
     13 Br2         3.9874    2.3936   -0.0211 Br        1 <0>        -0.0316
     14 H1         -0.9693    1.8865    0.0713 H         1 <0>         0.1447
     15 H2          1.1369    3.1594    0.0383 H         1 <0>         0.1480
     16 H3          1.2265   -1.7699   -0.0015 H         1 <0>         0.1667
     17 H4          4.4223   -0.2216    0.3035 H         1 <0>         0.4191
     18 H5          4.8925   -3.4945   -0.8237 H         1 <0>         0.4223
     19 H6          5.7385   -1.7355    1.0639 H         1 <0>         0.3395
     20 H7          6.7261   -2.6684    0.1046 H         1 <0>         0.3711
@<TRIPOS>BOND
     1    1    6 ar
     2    1    2 ar
     3    1   14 1
     4    2    3 ar
     5    2   15 1
     6    3    4 ar
     7    3   13 1
     8    4    5 ar
     9    4    8 1
    10    5    6 ar
    11    5   16 1
    12    6    7 1
    13    8    9 am
    14    8   17 1
    15    9   10 2
    16    9   11 am
    17   11   12 1
    18   11   18 1
    19   12   19 1
    20   12   20 1
@<TRIPOS>MOLECULE
ZINC50345465
   45    46     0     0     0
SMALL
USER_CHARGES

@<TRIPOS>ATOM
      1 C1         -0.0598    1.5308   -0.0566 C.3       1 <0>        -0.1444
      2 C2         -0.0376    0.0009   -0.0597 C.3       1 <0>        -0.0637
      3 C3          0.6860   -0.5012    1.1914 C.3       1 <0>        -0.1456
      4 C4         -1.4725   -0.5299   -0.0666 C.3       1 <0>        -0.1448
      5 C5          0.6960   -0.4960   -1.3071 C.3       1 <0>        -0.0755
      6 C6          0.7166   -2.0262   -1.3108 C.3       1 <0>        -0.1321
      7 C7          1.4212   -2.5204   -2.5781 C.3       1 <0>         0.1094
      8 N1          2.7505   -1.8989   -2.6530 N.am      1 <0>        -0.6064
      9 C8          2.8520   -0.4356   -2.5671 C.3       1 <0>         0.1050
     10 C9          2.1313    0.0352   -1.3000 C.3       1 <0>        -0.1331
     11 C10         3.8557   -2.6566   -2.7972 C.2       1 <0>         0.5764
     12 O1          3.7703   -3.8695   -2.7626 O.2       1 <0>        -0.5500
     13 C11         5.1654   -2.0167   -2.9964 C.ar      1 <0>        -0.2746
     14 C12         5.3450   -1.0911   -4.0302 C.ar      1 <0>         0.0068
     15 C13         6.5596   -0.4974   -4.2146 C.ar      1 <0>        -0.2540
     16 C14         7.6307   -0.8070   -3.3772 C.ar      1 <0>         0.2819
     17 C15         7.4709   -1.7230   -2.3463 C.ar      1 <0>        -0.2892
     18 C16         6.2400   -2.3285   -2.1454 C.ar      1 <0>         0.3111
     19 N2          6.0710   -3.2421   -1.1128 N.pl3     1 <0>        -0.8621
     20 N3          8.8641   -0.1959   -3.5757 N.pl3     1 <0>        -0.8684
     21 H1          0.9625    1.9089   -0.0518 H         1 <0>         0.0576
     22 H2         -0.5752    1.8885   -0.9479 H         1 <0>         0.0544
     23 H3         -0.5824    1.8847    0.8320 H         1 <0>         0.0538
     24 H4          0.1634   -0.1472    2.0800 H         1 <0>         0.0526
     25 H5          0.7018   -1.5911    1.1892 H         1 <0>         0.0564
     26 H6          1.7083   -0.1230    1.1962 H         1 <0>         0.0562
     27 H7         -1.9880   -0.1722   -0.9579 H         1 <0>         0.0544
     28 H8         -1.4567   -1.6198   -0.0688 H         1 <0>         0.0577
     29 H9         -1.9951   -0.1759    0.8221 H         1 <0>         0.0539
     30 H10         0.1806   -0.1378   -2.1983 H         1 <0>         0.0717
     31 H11         1.2534   -2.3850   -0.4326 H         1 <0>         0.0694
     32 H12        -0.3058   -2.4039   -1.2922 H         1 <0>         0.0773
     33 H13         1.5265   -3.6046   -2.5385 H         1 <0>         0.0919
     34 H14         0.8367   -2.2397   -3.4542 H         1 <0>         0.0655
     35 H15         3.9013   -0.1443   -2.5203 H         1 <0>         0.0931
     36 H16         2.3841    0.0151   -3.4424 H         1 <0>         0.0663
     37 H17         2.1158    1.1247   -1.2737 H         1 <0>         0.0780
     38 H18         2.6548   -0.3430   -0.4219 H         1 <0>         0.0697
     39 H19         4.5207   -0.8463   -4.6837 H         1 <0>         0.1227
     40 H20         6.6922    0.2163   -5.0142 H         1 <0>         0.1217
     41 H21         8.3026   -1.9604   -1.6996 H         1 <0>         0.1229
     42 H22         5.2324   -3.7208   -1.0211 H         1 <0>         0.4060
     43 H23         6.7917   -3.4014   -0.4834 H         1 <0>         0.3992
     44 H24         8.9780    0.4442   -4.2956 H         1 <0>         0.4010
     45 H25         9.6105   -0.4098   -2.9943 H         1 <0>         0.3997
@<TRIPOS>BOND
     1    1    2 1
     2    1   21 1
     3    1   22 1
     4    1   23 1
     5    2    3 1
     6    2    4 1
     7    2    5 1
     8    3   24 1
     9    3   25 1
    10    3   26 1
    11    4   27 1
    12    4   28 1
    13    4   29 1
    14    5   10 1
    15    5    6 1
    16    5   30 1
    17    6    7 1
    18    6   31 1
    19    6   32 1
    20    7    8 1
    21    7   33 1
    22    7   34 1
    23    8    9 1
    24    8   11 am
    25    9   10 1
    26    9   35 1
    27    9   36 1
    28   10   37 1
    29   10   38 1
    30   11   12 2
    31   11   13 1
    32   13   18 ar
    33   13   14 ar
    34   14   15 ar
    35   14   39 1
    36   15   16 ar
    37   15   40 1
    38   16   17 ar
    39   16   20 1
    40   17   18 ar
    41   17   41 1
    42   18   19 1
    43   19   42 1
    44   19   43 1
    45   20   44 1
    46   20   45 1
@<TRIPOS>MOLECULE
ZINC62795979
   31    31     0     0     0
SMALL
USER_CHARGES

@<TRIPOS>ATOM
      1 C1         -0.0178    1.4608    0.0101 C.3       1 <0>         0.0846
      2 N1          0.0021   -0.0041    0.0020 N.am      1 <0>        -0.7348
      3 C2         -1.1558   -0.6938    0.0094 C.2       1 <0>         0.5168
      4 O1         -2.2142   -0.1017    0.0227 O.2       1 <0>        -0.5334
      5 C3         -1.1354   -2.2006    0.0011 C.3       1 <0>        -0.1552
      6 C4         -2.5708   -2.7302    0.0119 C.3       1 <0>         0.1315
      7 N2         -2.5509   -4.1950    0.0039 N.pl3     1 <0>        -0.7311
      8 C5         -3.7467   -4.9073    0.0115 C.ar      1 <0>         0.2650
      9 C6         -4.9604   -4.2263    0.0210 C.ar      1 <0>        -0.1931
     10 C7         -6.1449   -4.9272    0.0290 C.ar      1 <0>         0.0120
     11 C8         -6.1285   -6.3256    0.0271 C.ar      1 <0>        -0.1665
     12 C9         -4.9077   -7.0074    0.0170 C.ar      1 <0>        -0.0231
     13 C10        -3.7260   -6.2999    0.0038 C.ar      1 <0>        -0.1235
     14 Cl1        -2.2096   -7.1447   -0.0158 Cl        1 <0>        -0.0625
     15 C11        -7.3948   -7.0788    0.0361 C.2       1 <0>         0.4078
     16 S1         -8.7580   -6.4715   -0.8028 S.2       1 <0>        -0.5634
     17 N3         -7.4799   -8.2459    0.7048 N.pl3     1 <0>        -0.7652
     18 H1          1.0048    1.8381    0.0023 H         1 <0>         0.0777
     19 H2         -0.5450    1.8219   -0.8730 H         1 <0>         0.0622
     20 H3         -0.5280    1.8123    0.9069 H         1 <0>         0.0621
     21 H4          0.8486   -0.4776   -0.0086 H         1 <0>         0.4038
     22 H5         -0.6252   -2.5521   -0.8957 H         1 <0>         0.1035
     23 H6         -0.6082   -2.5617    0.8841 H         1 <0>         0.1032
     24 H7         -3.0810   -2.3787    0.9087 H         1 <0>         0.0789
     25 H8         -3.0980   -2.3691   -0.8711 H         1 <0>         0.0796
     26 H9         -1.7044   -4.6685   -0.0067 H         1 <0>         0.4054
     27 H10        -4.9729   -3.1464    0.0225 H         1 <0>         0.1450
     28 H11        -7.0862   -4.3978    0.0371 H         1 <0>         0.1506
     29 H12        -4.8914   -8.0873    0.0159 H         1 <0>         0.1358
     30 H13        -6.7075   -8.5900    1.1801 H         1 <0>         0.4028
     31 H14        -8.3136   -8.7418    0.7107 H         1 <0>         0.4235
@<TRIPOS>BOND
     1    1    2 1
     2    1   18 1
     3    1   19 1
     4    1   20 1
     5    2    3 am
     6    2   21 1
     7    3    4 2
     8    3    5 1
     9    5    6 1
    10    5   22 1
    11    5   23 1
    12    6    7 1
    13    6   24 1
    14    6   25 1
    15    7    8 1
    16    7   26 1
    17    8   13 ar
    18    8    9 ar
    19    9   10 ar
    20    9   27 1
    21   10   11 ar
    22   10   28 1
    23   11   12 ar
    24   11   15 1
    25   12   13 ar
    26   12   29 1
    27   13   14 1
    28   15   16 2
    29   15   17 1
    30   17   30 1
    31   17   31 1
@<TRIPOS>MOLECULE
ZINC37151504
   40    41     0     0     0
SMALL
USER_CHARGES

@<TRIPOS>ATOM
      1 C1         -1.5072   -0.3144   -0.1783 C.3       1 <0>        -0.1785
      2 C2         -0.0017   -0.1272    0.0194 C.3       1 <0>         0.0743
      3 H1          0.2138    0.9273    0.1916 H         1 <0>         0.1501
      4 C3          0.4529   -0.9335    1.2087 C.ar      1 <0>        -0.1209
      5 C4          0.6791   -2.2914    1.0771 C.ar      1 <0>        -0.1365
      6 C5          1.0961   -3.0338    2.1661 C.ar      1 <0>        -0.0839
      7 C6          1.2875   -2.4205    3.3894 C.ar      1 <0>        -0.1226
      8 C7          1.0612   -1.0586    3.5240 C.ar      1 <0>         0.1292
      9 C8          0.6486   -0.3146    2.4279 C.ar      1 <0>        -0.1195
     10 O1          1.2488   -0.4531    4.7261 O.3       1 <0>        -0.4921
     11 N1          0.7104   -0.5827   -1.1820 N.4       1 <0>        -0.5076
     12 C9          2.1416   -0.2803   -1.0471 C.3       1 <0>         0.0870
     13 H2          2.5163   -0.7043   -0.1155 H         1 <0>         0.1464
     14 C10         2.3435    1.2363   -1.0348 C.3       1 <0>        -0.1746
     15 C11         2.8929   -0.8776   -2.2089 C.ar      1 <0>        -0.1773
     16 C12         2.2429   -1.1074   -3.4067 C.ar      1 <0>        -0.0974
     17 C13         2.9289   -1.6549   -4.4736 C.ar      1 <0>        -0.1382
     18 C14         4.2732   -1.9755   -4.3448 C.ar      1 <0>         0.1561
     19 C15         4.9273   -1.7461   -3.1445 C.ar      1 <0>        -0.1622
     20 C16         4.2381   -1.1912   -2.0770 C.ar      1 <0>         0.1605
     21 O2          4.8782   -0.9595   -0.9008 O.3       1 <0>        -0.4897
     22 O3          4.9473   -2.5144   -5.3945 O.3       1 <0>        -0.4921
     23 H3         -1.8517    0.3360   -0.9823 H         1 <0>         0.0881
     24 H4         -1.7133   -1.3529   -0.4376 H         1 <0>         0.0831
     25 H5         -2.0293   -0.0598    0.7440 H         1 <0>         0.1102
     26 H6          0.5294   -2.7727    0.1219 H         1 <0>         0.1213
     27 H7          1.2721   -4.0941    2.0608 H         1 <0>         0.1407
     28 H8          1.6126   -3.0011    4.2400 H         1 <0>         0.1426
     29 H9          0.4763    0.7468    2.5290 H         1 <0>         0.1407
     30 H10         2.1453   -0.1169    4.8615 H         1 <0>         0.4027
     31 H11         0.5857   -1.5782   -1.2898 H         1 <0>         0.4251
     32 H12         1.7486    1.6755   -0.2339 H         1 <0>         0.0827
     33 H13         3.3972    1.4612   -0.8699 H         1 <0>         0.1111
     34 H14         2.0284    1.6525   -1.9916 H         1 <0>         0.0833
     35 H15         1.1969   -0.8589   -3.5087 H         1 <0>         0.1261
     36 H16         2.4187   -1.8338   -5.4085 H         1 <0>         0.1458
     37 H17         5.9733   -1.9949   -3.0424 H         1 <0>         0.1499
     38 H18         4.8473   -1.7029   -0.2831 H         1 <0>         0.4011
     39 H19         5.3620   -1.8601   -5.9733 H         1 <0>         0.4074
     40 H20         0.3412   -0.1078   -1.9921 H         1 <0>         0.4277
@<TRIPOS>BOND
     1    1    2 1
     2    1   23 1
     3    1   24 1
     4    1   25 1
     5    2    3 1
     6    2    4 1
     7    2   11 1
     8    4    9 ar
     9    4    5 ar
    10    5    6 ar
    11    5   26 1
    12    6    7 ar
    13    6   27 1
    14    7    8 ar
    15    7   28 1
    16    8    9 ar
    17    8   10 1
    18    9   29 1
    19   10   30 1
    20   11   12 1
    21   11   31 1
    22   11   40 1
    23   12   13 1
    24   12   14 1
    25   12   15 1
    26   14   32 1
    27   14   33 1
    28   14   34 1
    29   15   20 ar
    30   15   16 ar
    31   16   17 ar
    32   16   35 1
    33   17   18 ar
    34   17   36 1
    35   18   19 ar
    36   18   22 1
    37   19   20 ar
    38   19   37 1
    39   20   21 1
    40   21   38 1
    41   22   39 1
@<TRIPOS>MOLECULE
ZINC42406078
   39    41     0     0     0
SMALL
USER_CHARGES

@<TRIPOS>ATOM
      1 C1         -0.2581    3.0692    0.3802 C.ar      1 <0>        -0.1871
      2 C2          1.0969    3.3854    0.3674 C.ar      1 <0>         0.0504
      3 C3          2.0418    2.4372    0.0368 C.ar      1 <0>         0.1291
      4 C4          1.6299    1.1324   -0.2915 C.ar      1 <0>         0.0192
      5 C5          2.5469    0.1237   -0.6362 C.ar      1 <0>        -0.0766
      6 C6          2.0713   -1.1155   -0.9414 C.ar      1 <0>         0.0451
      7 N1          0.7741   -1.3914   -0.9214 N.ar      1 <0>        -0.4630
      8 C7         -0.1370   -0.4991   -0.6092 C.ar      1 <0>         0.2158
      9 C8          0.2486    0.8081   -0.2786 C.ar      1 <0>        -0.1511
     10 C9         -0.6927    1.7998    0.0633 C.ar      1 <0>         0.2787
     11 N2         -2.0559    1.4986    0.0813 N.pl3     1 <0>        -0.8479
     12 N3          3.3998    2.7700    0.0273 N.pl3     1 <0>        -0.6590
     13 C10         4.0351    3.2880   -1.1920 C.3       1 <0>         0.1440
     14 C11         4.7345    4.6099   -0.8602 C.3       1 <0>        -0.1415
     15 C12         5.6994    4.3929    0.3077 C.3       1 <0>        -0.1160
     16 C13         4.9158    3.9381    1.5412 C.3       1 <0>        -0.1283
     17 C14         4.2171    2.6142    1.2383 C.3       1 <0>         0.1553
     18 H1          4.9653    1.8382    1.0768 H         1 <0>         0.0812
     19 C15         3.3337    2.2346    2.3987 C.2       1 <0>         0.5112
     20 O1          2.2517    2.7650    2.5360 O.2       1 <0>        -0.5275
     21 N4          3.7461    1.3057    3.2838 N.am      1 <0>        -0.8503
     22 H2         -0.9793    3.8278    0.6465 H         1 <0>         0.1475
     23 H3          1.4127    4.3869    0.6194 H         1 <0>         0.1454
     24 H4          3.6073    0.3276   -0.6588 H         1 <0>         0.1745
     25 H5          2.7698   -1.8951   -1.2073 H         1 <0>         0.1966
     26 H6         -1.1821   -0.7713   -0.6072 H         1 <0>         0.1989
     27 H7         -2.7008    2.1835    0.3174 H         1 <0>         0.4204
     28 H8         -2.3580    0.6043   -0.1423 H         1 <0>         0.4024
     29 H9          4.7681    2.5681   -1.5561 H         1 <0>         0.0602
     30 H10         3.2761    3.4577   -1.9557 H         1 <0>         0.0762
     31 H11         5.2902    4.9562   -1.7316 H         1 <0>         0.0774
     32 H12         3.9897    5.3559   -0.5830 H         1 <0>         0.0687
     33 H13         6.4289    3.6289    0.0389 H         1 <0>         0.0670
     34 H14         6.2165    5.3263    0.5298 H         1 <0>         0.0728
     35 H15         5.6006    3.8062    2.3789 H         1 <0>         0.0774
     36 H16         4.1694    4.6904    1.7958 H         1 <0>         0.0764
     37 H17         4.6115    0.8815    3.1740 H         1 <0>         0.4044
     38 H18         3.1775    1.0613    4.0307 H         1 <0>         0.4061
     39 H19         0.4865   -2.2898   -1.1473 H         1 <0>         0.4464
@<TRIPOS>BOND
     1    1   10 ar
     2    1    2 ar
     3    1   22 1
     4    2    3 ar
     5    2   23 1
     6    3    4 ar
     7    3   12 1
     8    4    9 ar
     9    4    5 ar
    10    5    6 ar
    11    5   24 1
    12    6    7 ar
    13    6   25 1
    14    7    8 ar
    15    7   39 1
    16    8    9 ar
    17    8   26 1
    18    9   10 ar
    19   10   11 1
    20   11   27 1
    21   11   28 1
    22   12   17 1
    23   12   13 1
    24   13   14 1
    25   13   29 1
    26   13   30 1
    27   14   15 1
    28   14   31 1
    29   14   32 1
    30   15   16 1
    31   15   33 1
    32   15   34 1
    33   16   17 1
    34   16   35 1
    35   16   36 1
    36   17   18 1
    37   17   19 1
    38   19   20 2
    39   19   21 am
    40   21   37 1
    41   21   38 1
@<TRIPOS>MOLECULE
ZINC49500845
   46    48     0     0     0
SMALL
USER_CHARGES

@<TRIPOS>ATOM
      1 C1          0.2243    1.5525   -0.1544 C.3       1 <0>        -0.1748
      2 C2          0.1163    0.0279   -0.0852 C.3       1 <0>         0.1337
      3 H1         -0.9128   -0.2728   -0.2822 H         1 <0>         0.1016
      4 C3          0.5292   -0.4500    1.3084 C.3       1 <0>        -0.0192
      5 N1          0.5312   -1.9186    1.3419 N.4       1 <0>        -0.3815
      6 C4          1.0621   -2.3764    2.6315 C.3       1 <0>        -0.0087
      7 C5          1.1421   -3.9045    2.6409 C.3       1 <0>        -0.1462
      8 C6         -0.2591   -4.4849    2.4290 C.3       1 <0>        -0.1393
      9 C7         -0.8328   -3.9418    1.1170 C.3       1 <0>        -0.1446
     10 C8         -0.8396   -2.4124    1.1641 C.3       1 <0>        -0.0107
     11 N2          1.0004   -0.5704   -1.0884 N.pl3     1 <0>        -0.7627
     12 C9          0.5767   -0.6808   -2.4182 C.ar      1 <0>         0.1587
     13 C10        -0.6761   -0.2189   -2.7843 C.ar      1 <0>        -0.1662
     14 C11        -1.1033   -0.3265   -4.1060 C.ar      1 <0>         0.1359
     15 C12        -0.2567   -0.9011   -5.0455 C.ar      1 <0>        -0.1263
     16 C13         0.9915   -1.3622   -4.6870 C.ar      1 <0>        -0.1008
     17 C14         1.4198   -1.2506   -3.3719 C.ar      1 <0>         0.1465
     18 N3          2.6912   -1.7130   -3.0027 N.pl3     1 <0>        -0.8820
     19 C15        -0.9990   -0.8711   -6.3620 C.3       1 <0>        -0.1157
     20 C16        -2.3242   -0.2224   -6.0237 C.2       1 <0>         0.5274
     21 O1         -3.2345    0.0004   -6.7938 O.2       1 <0>        -0.4958
     22 N4         -2.3033    0.0594   -4.7102 N.am      1 <0>        -0.6613
     23 H2          1.2533    1.8531    0.0427 H         1 <0>         0.0706
     24 H3         -0.0699    1.8929   -1.1472 H         1 <0>         0.0824
     25 H4         -0.4335    1.9976    0.5921 H         1 <0>         0.0755
     26 H5          1.5285   -0.0800    1.5380 H         1 <0>         0.1362
     27 H6         -0.1772   -0.0706    2.0467 H         1 <0>         0.1452
     28 H7          2.0581   -1.9599    2.7823 H         1 <0>         0.1297
     29 H8          0.4043   -2.0425    3.4339 H         1 <0>         0.1304
     30 H9          1.8000   -4.2395    1.8389 H         1 <0>         0.0865
     31 H10         1.5349   -4.2425    3.5998 H         1 <0>         0.1132
     32 H11        -0.1995   -5.5720    2.3784 H         1 <0>         0.0946
     33 H12        -0.9040   -4.1922    3.2576 H         1 <0>         0.0825
     34 H13        -0.2159   -4.2776    0.2835 H         1 <0>         0.0867
     35 H14        -1.8517   -4.3065    0.9868 H         1 <0>         0.1124
     36 H15        -1.4569   -2.0777    1.9978 H         1 <0>         0.1297
     37 H16        -1.2477   -2.0224    0.2316 H         1 <0>         0.1298
     38 H17         1.8794   -0.8900   -0.8314 H         1 <0>         0.3922
     39 H18        -1.3239    0.2257   -2.0433 H         1 <0>         0.1260
     40 H19         1.6373   -1.8067   -5.4298 H         1 <0>         0.1346
     41 H20         2.9864   -1.6369   -2.0819 H         1 <0>         0.3863
     42 H21         3.2754   -2.1088   -3.6682 H         1 <0>         0.4058
     43 H22        -0.4561   -0.2718   -7.0928 H         1 <0>         0.1255
     44 H23        -1.1538   -1.8831   -6.7361 H         1 <0>         0.1251
     45 H24        -3.0363    0.4821   -4.2359 H         1 <0>         0.4122
     46 H25         1.1136   -2.2702    0.5968 H         1 <0>         0.4191
@<TRIPOS>BOND
     1    1    2 1
     2    1   23 1
     3    1   24 1
     4    1   25 1
     5    2    3 1
     6    2    4 1
     7    2   11 1
     8    4    5 1
     9    4   26 1
    10    4   27 1
    11    5   10 1
    12    5    6 1
    13    5   46 1
    14    6    7 1
    15    6   28 1
    16    6   29 1
    17    7    8 1
    18    7   30 1
    19    7   31 1
    20    8    9 1
    21    8   32 1
    22    8   33 1
    23    9   10 1
    24    9   34 1
    25    9   35 1
    26   10   36 1
    27   10   37 1
    28   11   12 1
    29   11   38 1
    30   12   17 ar
    31   12   13 ar
    32   13   14 ar
    33   13   39 1
    34   14   22 1
    35   14   15 ar
    36   15   16 ar
    37   15   19 1
    38   16   17 ar
    39   16   40 1
    40   17   18 1
    41   18   41 1
    42   18   42 1
    43   19   20 1
    44   19   43 1
    45   19   44 1
    46   20   21 2
    47   20   22 am
    48   22   45 1
@<TRIPOS>MOLECULE
ZINC58118020
   35    37     0     0     0
SMALL
USER_CHARGES

@<TRIPOS>ATOM
      1 C1         -0.0184    1.5028    0.0103 C.3       1 <0>        -0.1315
      2 C2          0.0021   -0.0041    0.0020 C.ar      1 <0>        -0.0460
      3 C3          0.0057   -0.6887   -1.1989 C.ar      1 <0>        -0.1094
      4 C4          0.0245   -2.0709   -1.2065 C.ar      1 <0>        -0.0725
      5 C5          0.0400   -2.7685   -0.0132 C.ar      1 <0>        -0.1540
      6 C6          0.0373   -2.0839    1.1877 C.ar      1 <0>        -0.1100
      7 C7          0.0229   -0.7016    1.1953 C.ar      1 <0>        -0.1092
      8 C8          0.0595   -4.2753   -0.0215 C.3       1 <0>         0.1420
      9 H1          0.4102   -4.6288   -0.9911 H         1 <0>         0.1603
     10 C9         -1.3318   -4.7970    0.2301 C.ar      1 <0>        -0.1176
     11 C10        -1.7195   -5.1314    1.5132 C.ar      1 <0>        -0.1056
     12 C11        -2.9993   -5.6109    1.7447 C.ar      1 <0>         0.1158
     13 C12        -3.8920   -5.7541    0.6802 C.ar      1 <0>         0.1320
     14 C13        -3.4949   -5.4166   -0.6042 C.ar      1 <0>        -0.0809
     15 C14        -2.2184   -4.9339   -0.8251 C.ar      1 <0>        -0.0011
     16 Cl1        -1.7227   -4.5038   -2.4323 Cl        1 <0>        -0.0302
     17 N1         -5.0795   -6.2483    1.2146 N.am      1 <0>        -0.6355
     18 H2         -5.8862   -6.4497    0.7150 H         1 <0>         0.4468
     19 C15        -4.9171   -6.3989    2.5426 C.2       1 <0>         0.6875
     20 O1         -5.7663   -6.8123    3.3099 O.2       1 <0>        -0.5206
     21 N2         -3.6728   -6.0228    2.8929 N.am      1 <0>        -0.6385
     22 H3         -3.3074   -6.0362    3.7914 H         1 <0>         0.4432
     23 N3          0.9618   -4.7592    1.0319 N.4       1 <0>        -0.6348
     24 H4          1.0042    1.8801    0.0026 H         1 <0>         0.0831
     25 H5         -0.5455    1.8639   -0.8728 H         1 <0>         0.0768
     26 H6         -0.5286    1.8543    0.9071 H         1 <0>         0.0755
     27 H7         -0.0064   -0.1436   -2.1312 H         1 <0>         0.1375
     28 H8          0.0266   -2.6057   -2.1448 H         1 <0>         0.1336
     29 H9          0.0491   -2.6289    2.1200 H         1 <0>         0.1183
     30 H10         0.0245   -0.1667    2.1335 H         1 <0>         0.1354
     31 H11        -1.0267   -5.0199    2.3342 H         1 <0>         0.1354
     32 H12        -4.1824   -5.5264   -1.4298 H         1 <0>         0.1589
     33 H13         0.9748   -5.7681    1.0263 H         1 <0>         0.4415
     34 H14         1.8933   -4.4099    0.8634 H         1 <0>         0.4443
     35 H15         0.6371   -4.4319    1.9294 H         1 <0>         0.4293
@<TRIPOS>BOND
     1    1    2 1
     2    1   24 1
     3    1   25 1
     4    1   26 1
     5    2    7 ar
     6    2    3 ar
     7    3    4 ar
     8    3   27 1
     9    4    5 ar
    10    4   28 1
    11    5    6 ar
    12    5    8 1
    13    6    7 ar
    14    6   29 1
    15    7   30 1
    16    8    9 1
    17    8   10 1
    18    8   23 1
    19   10   15 ar
    20   10   11 ar
    21   11   12 ar
    22   11   31 1
    23   12   21 1
    24   12   13 ar
    25   13   14 ar
    26   13   17 1
    27   14   15 ar
    28   14   32 1
    29   15   16 1
    30   17   18 1
    31   17   19 am
    32   19   20 2
    33   19   21 am
    34   21   22 1
    35   23   33 1
    36   23   34 1
    37   23   35 1
@<TRIPOS>MOLECULE
ZINC63211955
   39    40     0     0     0
SMALL
USER_CHARGES

@<TRIPOS>ATOM
      1 C1          0.1404    1.3547    0.1021 C.ar      1 <0>        -0.1345
      2 C2          1.3427    2.0433    0.0916 C.ar      1 <0>        -0.0624
      3 C3          2.5402    1.3572    0.0590 C.ar      1 <0>        -0.1501
      4 C4          2.5466   -0.0297    0.0369 C.ar      1 <0>         0.1795
      5 C5          1.3327   -0.7299    0.0478 C.ar      1 <0>        -0.1865
      6 C6          0.1281   -0.0229    0.0805 C.ar      1 <0>        -0.0777
      7 C7          1.3268   -2.2050    0.0240 C.2       1 <0>         0.5681
      8 O1          2.3771   -2.8168   -0.0052 O.2       1 <0>        -0.4883
      9 N1          0.1571   -2.8745    0.0347 N.am      1 <0>        -0.7598
     10 C8          0.1512   -4.3393    0.0110 C.3       1 <0>         0.1262
     11 H1          1.0359   -4.7035    0.5333 H         1 <0>         0.1219
     12 C9          0.2059   -4.8144   -1.4535 C.3       1 <0>        -0.1298
     13 C10        -0.2218   -6.2850   -1.6209 C.3       1 <0>        -0.1256
     14 C11         0.3341   -7.1729   -0.5408 C.3       1 <0>        -0.1303
     15 C12        -0.7160   -7.2942    0.5824 C.3       1 <0>        -0.1299
     16 C13        -0.7166   -6.1395    1.4684 C.3       1 <0>        -0.1270
     17 C14        -1.0756   -4.8329    0.7290 C.3       1 <0>         0.0196
     18 H2         -1.8697   -5.0249    0.0074 H         1 <0>         0.1537
     19 N2         -1.5191   -3.8233    1.6995 N.4       1 <0>        -0.6338
     20 O2          3.7225   -0.7052    0.0043 O.3       1 <0>        -0.4768
     21 H3         -0.7912    1.9002    0.1318 H         1 <0>         0.1368
     22 H4          1.3430    3.1232    0.1088 H         1 <0>         0.1398
     23 H5          3.4733    1.9010    0.0503 H         1 <0>         0.1437
     24 H6         -0.8114   -0.5555    0.0891 H         1 <0>         0.1205
     25 H7         -0.6809   -2.3864    0.0580 H         1 <0>         0.3890
     26 H8         -0.4539   -4.1861   -2.0518 H         1 <0>         0.0754
     27 H9          1.2254   -4.7008   -1.8221 H         1 <0>         0.0874
     28 H10        -1.3102   -6.3405   -1.5977 H         1 <0>         0.0654
     29 H11         0.1272   -6.6458   -2.5885 H         1 <0>         0.0788
     30 H12         0.5467   -8.1600   -0.9515 H         1 <0>         0.0805
     31 H13         1.2487   -6.7348   -0.1412 H         1 <0>         0.0732
     32 H14        -1.7038   -7.3946    0.1327 H         1 <0>         0.0749
     33 H15        -0.5044   -8.1886    1.1684 H         1 <0>         0.0880
     34 H16        -1.4424   -6.3058    2.2644 H         1 <0>         0.0906
     35 H17         0.2734   -6.0346    1.9122 H         1 <0>         0.0935
     36 H18        -1.8449   -3.0045    1.2080 H         1 <0>         0.4291
     37 H19        -2.2696   -4.2008    2.2584 H         1 <0>         0.4398
     38 H20         4.0798   -0.9151    0.8780 H         1 <0>         0.4004
     39 H21        -0.7475   -3.5710    2.2988 H         1 <0>         0.4366
@<TRIPOS>BOND
     1    1    6 ar
     2    1    2 ar
     3    1   21 1
     4    2    3 ar
     5    2   22 1
     6    3    4 ar
     7    3   23 1
     8    4    5 ar
     9    4   20 1
    10    5    6 ar
    11    5    7 1
    12    6   24 1
    13    7    8 2
    14    7    9 am
    15    9   10 1
    16    9   25 1
    17   10   11 1
    18   10   17 1
    19   10   12 1
    20   12   13 1
    21   12   26 1
    22   12   27 1
    23   13   14 1
    24   13   28 1
    25   13   29 1
    26   14   15 1
    27   14   30 1
    28   14   31 1
    29   15   16 1
    30   15   32 1
    31   15   33 1
    32   16   17 1
    33   16   34 1
    34   16   35 1
    35   17   18 1
    36   17   19 1
    37   19   36 1
    38   19   37 1
    39   19   39 1
    40   20   38 1
@<TRIPOS>MOLECULE
ZINC15030664
   60    63     0     0     0
SMALL
USER_CHARGES
2-[[(2R)-2-[4-[5-(trifluoromethyl)-2-pyridyl]-1,4-diazepan-1-yl]propanoyl]amino]-5,6-dihydro-4H-cyclopenta[d]thiophene-3-carboxamide
@<TRIPOS>ATOM
      1 C1         -1.4359    3.1133    3.7136 C.3       1 <0>        -0.1837
      2 C2         -0.1067    3.1919    2.9599 C.3       1 <0>         0.0221
      3 H1          0.5965    2.4268    3.3207 H         1 <0>         0.1684
      4 C3          0.4941    4.5618    3.1427 C.2       1 <0>         0.5009
      5 O1          0.7077    5.2640    2.1772 O.2       1 <0>        -0.4946
      6 N1          0.7941    5.0066    4.3791 N.am      1 <0>        -0.6050
      7 C4          1.3469    6.2671    4.5472 C.2       1 <0>         0.0349
      8 C5          1.7139    6.8954    5.7249 C.2       1 <0>        -0.1777
      9 C6          2.2842    8.2385    5.6266 C.2       1 <0>        -0.1010
     10 C7          2.3819    8.7275    4.3773 C.2       1 <0>        -0.2128
     11 S1          1.7389    7.4399    3.3364 S.3       1 <0>         0.2591
     12 C8          2.9734   10.1109    4.3577 C.3       1 <0>        -0.0417
     13 C9          3.6418   10.2680    5.7414 C.3       1 <0>        -0.1132
     14 C10         2.8175    9.2893    6.6013 C.3       1 <0>        -0.0589
     15 C11         1.5407    6.2367    7.0233 C.2       1 <0>         0.5759
     16 O2          2.4354    5.5505    7.4817 O.2       1 <0>        -0.5365
     17 N2          0.3909    6.3909    7.7092 N.am      1 <0>        -0.8693
     18 N3         -0.3391    2.9459    1.5304 N.4       1 <0>        -0.3842
     19 C12        -0.7109    1.5715    1.2949 C.3       1 <0>        -0.0166
     20 C13        -0.0127    1.0858    0.0080 C.3       1 <0>        -0.1388
     21 C14        -0.6973    1.5589   -1.1933 C.3       1 <0>         0.0296
     22 N4         -0.7271    3.0373   -1.2748 N.pl3     1 <0>        -0.4821
     23 C15        -1.7822    3.5558   -0.4387 C.3       1 <0>         0.0220
     24 C16        -1.2871    3.9366    0.9682 C.3       1 <0>        -0.0149
     25 C17        -0.8801    3.4607   -2.5899 C.ar      1 <0>         0.3315
     26 C18         0.0262    3.0418   -3.5590 C.ar      1 <0>        -0.1798
     27 C19        -0.1380    3.4707   -4.8635 C.ar      1 <0>         0.0033
     28 C20        -1.2071    4.3074   -5.1566 C.ar      1 <0>        -0.2508
     29 C21        -2.0680    4.6838   -4.1455 C.ar      1 <0>         0.1896
     30 N5         -1.8900    4.2547   -2.9102 N.ar      1 <0>        -0.5166
     31 C22        -1.4247    4.7998   -6.5641 C.3       1 <0>         0.5163
     32 F1         -2.2466    3.9000   -7.2511 F         1 <0>        -0.1710
     33 F2         -2.0370    6.0572   -6.5289 F         1 <0>        -0.1713
     34 F3         -0.1925    4.8993   -7.2191 F         1 <0>        -0.1717
     35 H2         -1.8745    2.1134    3.5802 H         1 <0>         0.1016
     36 H3         -2.1269    3.8725    3.3184 H         1 <0>         0.0932
     37 H4         -1.2619    3.2975    4.7840 H         1 <0>         0.1087
     38 H5          0.6004    4.3697    5.2548 H         1 <0>         0.4524
     39 H6          3.7043   10.1856    3.5391 H         1 <0>         0.0832
     40 H7          2.1732   10.8497    4.2033 H         1 <0>         0.0898
     41 H8          4.7041    9.9917    5.6689 H         1 <0>         0.0811
     42 H9          3.5566   11.3133    6.0732 H         1 <0>         0.0901
     43 H10         1.9734    9.7973    7.0907 H         1 <0>         0.0848
     44 H11         3.4421    8.7995    7.3629 H         1 <0>         0.0777
     45 H12         0.2611    5.8967    8.6833 H         1 <0>         0.4282
     46 H13        -0.4177    7.0110    7.2949 H         1 <0>         0.4229
     47 H14        -0.3937    0.9545    2.1485 H         1 <0>         0.1379
     48 H15        -1.8024    1.5018    1.1776 H         1 <0>         0.1307
     49 H16         1.0207    1.4622   -0.0129 H         1 <0>         0.1002
     50 H17        -0.0027   -0.0140   -0.0111 H         1 <0>         0.1304
     51 H18        -0.1782    1.1780   -2.0852 H         1 <0>         0.1096
     52 H19        -1.7357    1.1960   -1.1905 H         1 <0>         0.0732
     53 H20        -2.2083    4.4574   -0.9030 H         1 <0>         0.1459
     54 H21        -2.5684    2.7948   -0.3262 H         1 <0>         0.0748
     55 H22        -2.1666    4.0157    1.6241 H         1 <0>         0.1295
     56 H23        -0.7935    4.9170    0.8970 H         1 <0>         0.1542
     57 H24         0.8464    2.3904   -3.2961 H         1 <0>         0.1526
     58 H25         0.5498    3.1622   -5.6369 H         1 <0>         0.1574
     59 H26        -2.9006    5.3343   -4.3690 H         1 <0>         0.1767
     60 H27         0.6064    3.0656    0.9811 H         1 <0>         0.4515
@<TRIPOS>BOND
     1    1    2 1
     2    1   35 1
     3    1   36 1
     4    1   37 1
     5    2    3 1
     6    2    4 1
     7    2   18 1
     8    4    5 2
     9    4    6 am
    10    6    7 1
    11    6   38 1
    12    7   11 1
    13    7    8 2
    14    8    9 1
    15    8   15 1
    16    9   14 1
    17    9   10 2
    18   10   11 1
    19   10   12 1
    20   12   13 1
    21   12   39 1
    22   12   40 1
    23   13   14 1
    24   13   41 1
    25   13   42 1
    26   14   43 1
    27   14   44 1
    28   15   16 2
    29   15   17 am
    30   17   45 1
    31   17   46 1
    32   18   24 1
    33   18   19 1
    34   18   60 1
    35   19   20 1
    36   19   47 1
    37   19   48 1
    38   20   21 1
    39   20   49 1
    40   20   50 1
    41   21   22 1
    42   21   51 1
    43   21   52 1
    44   22   23 1
    45   22   25 1
    46   23   24 1
    47   23   53 1
    48   23   54 1
    49   24   55 1
    50   24   56 1
    51   25   30 ar
    52   25   26 ar
    53   26   27 ar
    54   26   57 1
    55   27   28 ar
    56   27   58 1
    57   28   29 ar
    58   28   31 1
    59   29   30 ar
    60   29   59 1
    61   31   32 1
    62   31   33 1
    63   31   34 1
@<TRIPOS>MOLECULE
ZINC39597689
   63    67     0     0     0
SMALL
USER_CHARGES

@<TRIPOS>ATOM
      1 C1         -0.2995    1.3235   -5.4651 C.ar      1 <0>        -0.1416
      2 C2          0.1213    0.0860   -4.9984 C.ar      1 <0>        -0.0978
      3 C3          0.0805   -0.2087   -3.6531 C.ar      1 <0>        -0.1244
      4 C4         -0.3863    0.7420   -2.7515 C.ar      1 <0>         0.0951
      5 N1         -0.5473    0.7533   -1.3841 N.pl3     1 <0>        -0.5922
      6 C5         -1.0550    1.9598   -0.9854 C.2       1 <0>         0.0702
      7 C6         -1.2372    2.7546   -2.0516 C.2       1 <0>        -0.1855
      8 C7         -0.8114    1.9951   -3.2297 C.ar      1 <0>        -0.1000
      9 C8         -0.7566    2.2743   -4.5964 C.ar      1 <0>        -0.0775
     10 C9         -1.7777    4.1613   -2.0392 C.3       1 <0>        -0.0477
     11 C10        -3.2828    4.1317   -2.3126 C.3       1 <0>         0.1204
     12 N2         -3.8082    5.4992   -2.3004 N.am      1 <0>        -0.7285
     13 C11        -5.1198    5.7191   -2.5195 C.2       1 <0>         0.5183
     14 O1         -5.8650    4.7850   -2.7266 O.2       1 <0>        -0.5196
     15 C12        -5.6603    7.1258   -2.5070 C.3       1 <0>        -0.1148
     16 H1         -5.0668    7.7538   -1.8425 H         1 <0>         0.1114
     17 C13        -7.1420    7.1289   -2.0690 C.3       1 <0>         0.1119
     18 N3         -7.7768    8.1762   -2.9034 N.am      1 <0>        -0.6232
     19 C14        -7.1468    8.0180   -4.2361 C.3       1 <0>         0.1063
     20 C15        -5.6678    7.7092   -3.9300 C.3       1 <0>        -0.0716
     21 C16        -5.1265    6.6858   -4.9236 C.3       1 <0>        -0.1469
     22 C17        -5.0890    7.3089   -6.3219 C.3       1 <0>        -0.0077
     23 N4         -4.2354    8.5030   -6.3048 N.4       1 <0>        -0.5043
     24 C18        -4.8137    9.5190   -5.4170 C.3       1 <0>        -0.0110
     25 C19        -4.8395    8.9894   -3.9805 C.3       1 <0>        -0.1333
     26 C20        -8.7148    9.0708   -2.5340 C.2       1 <0>         0.5502
     27 O2         -9.1396    9.8717   -3.3396 O.2       1 <0>        -0.5291
     28 C21        -9.2357    9.0760   -1.1199 C.3       1 <0>        -0.1373
     29 C22       -10.3408    8.0370   -0.8667 C.3       1 <0>        -0.1231
     30 C23       -11.0427    9.1072   -0.0141 C.3       1 <0>        -0.1428
     31 C24       -10.2997   10.1553   -0.8593 C.3       1 <0>        -0.1184
     32 H2         -0.2613    1.5384   -6.5229 H         1 <0>         0.1221
     33 H3          0.4842   -0.6535   -5.6969 H         1 <0>         0.1279
     34 H4          0.4095   -1.1748   -3.2998 H         1 <0>         0.1228
     35 H5         -1.2763    2.2322    0.0360 H         1 <0>         0.1710
     36 H6         -0.3332    0.0156   -0.7917 H         1 <0>         0.4200
     37 H7         -1.0825    3.2350   -4.9667 H         1 <0>         0.1145
     38 H8         -1.5943    4.6124   -1.0640 H         1 <0>         0.0770
     39 H9         -1.2797    4.7487   -2.8106 H         1 <0>         0.0733
     40 H10        -3.4661    3.6807   -3.2877 H         1 <0>         0.0724
     41 H11        -3.7807    3.5443   -1.5411 H         1 <0>         0.0732
     42 H12        -3.2122    6.2464   -2.1348 H         1 <0>         0.3999
     43 H13        -7.5983    6.1586   -2.2649 H         1 <0>         0.1003
     44 H14        -7.2254    7.3826   -1.0122 H         1 <0>         0.0931
     45 H15        -7.6050    7.1905   -4.7777 H         1 <0>         0.0833
     46 H16        -7.2310    8.9417   -4.8087 H         1 <0>         0.0879
     47 H17        -4.1193    6.3906   -4.6296 H         1 <0>         0.0974
     48 H18        -5.7749    5.8096   -4.9330 H         1 <0>         0.1259
     49 H19        -4.6870    6.5853   -7.0311 H         1 <0>         0.1394
     50 H20        -6.0988    7.5886   -6.6220 H         1 <0>         0.1330
     51 H21        -3.3158    8.2528   -5.9734 H         1 <0>         0.4275
     52 H22        -4.2087   10.4248   -5.4593 H         1 <0>         0.1396
     53 H23        -5.8301    9.7461   -5.7386 H         1 <0>         0.1338
     54 H24        -5.2854    9.7374   -3.3249 H         1 <0>         0.1174
     55 H25        -3.8219    8.7776   -3.6524 H         1 <0>         0.0964
     56 H26        -8.4397    9.0589   -0.3755 H         1 <0>         0.1136
     57 H27       -10.8947    7.7612   -1.7641 H         1 <0>         0.0856
     58 H28       -10.0048    7.1731   -0.2933 H         1 <0>         0.0774
     59 H29       -12.1247    9.1286   -0.1442 H         1 <0>         0.0773
     60 H30       -10.7414    9.0976    1.0334 H         1 <0>         0.0868
     61 H31        -9.9305   11.0014   -0.2799 H         1 <0>         0.0751
     62 H32       -10.8424   10.4586   -1.7546 H         1 <0>         0.0956
     63 H33        -4.1632    8.8765   -7.2393 H         1 <0>         0.4342
@<TRIPOS>BOND
     1    1    2 ar
     2    1   32 1
     3    1    9 ar
     4    2    3 ar
     5    2   33 1
     6    3    4 ar
     7    3   34 1
     8    4    5 1
     9    4    8 ar
    10    5   36 1
    11    5    6 1
    12    6    7 2
    13    6   35 1
    14    7    8 1
    15    7   10 1
    16    8    9 ar
    17    9   37 1
    18   10   11 1
    19   10   38 1
    20   10   39 1
    21   11   12 1
    22   11   40 1
    23   11   41 1
    24   12   13 am
    25   12   42 1
    26   13   14 2
    27   13   15 1
    28   15   16 1
    29   15   20 1
    30   15   17 1
    31   17   18 1
    32   17   43 1
    33   17   44 1
    34   18   19 1
    35   18   26 am
    36   19   20 1
    37   19   45 1
    38   19   46 1
    39   20   25 1
    40   20   21 1
    41   21   22 1
    42   21   47 1
    43   21   48 1
    44   22   23 1
    45   22   49 1
    46   22   50 1
    47   23   24 1
    48   23   51 1
    49   23   63 1
    50   24   25 1
    51   24   52 1
    52   24   53 1
    53   25   54 1
    54   25   55 1
    55   26   27 2
    56   26   28 1
    57   28   31 1
    58   28   29 1
    59   28   56 1
    60   29   30 1
    61   29   57 1
    62   29   58 1
    63   30   31 1
    64   30   59 1
    65   30   60 1
    66   31   61 1
    67   31   62 1
@<TRIPOS>MOLECULE
ZINC39656140
   70    74     0     0     0
SMALL
USER_CHARGES

@<TRIPOS>ATOM
      1 C1         -1.8439    6.0300   -4.2952 C.3       1 <0>        -0.1133
      2 C2         -2.4327    4.6453   -4.2136 C.ar      1 <0>        -0.1047
      3 C3         -3.5509    4.4182   -3.4235 C.ar      1 <0>        -0.0940
      4 C4         -4.1048    3.1596   -3.3345 C.ar      1 <0>        -0.1239
      5 C5         -3.5397    2.1046   -4.0430 C.ar      1 <0>         0.0905
      6 N1         -3.8487    0.7679   -4.1604 N.pl3     1 <0>        -0.5931
      7 C6         -2.9576    0.1563   -4.9994 C.2       1 <0>         0.0634
      8 C7         -2.0612    1.0503   -5.4456 C.2       1 <0>        -0.1820
      9 C8         -2.4064    2.3402   -4.8430 C.ar      1 <0>        -0.0964
     10 C9         -1.8647    3.6243   -4.9225 C.ar      1 <0>        -0.0768
     11 C10        -0.9165    0.7786   -6.3873 C.3       1 <0>        -0.0471
     12 C11         0.3557    0.5122   -5.5802 C.3       1 <0>         0.1217
     13 N2          1.4685    0.2481   -6.4957 N.am      1 <0>        -0.7315
     14 C12         2.6963   -0.0146   -6.0059 C.2       1 <0>         0.5118
     15 O1          2.8800   -0.0322   -4.8072 O.2       1 <0>        -0.5109
     16 C13         3.8410   -0.2863   -6.9476 C.3       1 <0>        -0.1144
     17 H1          3.6871    0.2364   -7.8917 H         1 <0>         0.1159
     18 C14         5.1792    0.1443   -6.3062 C.3       1 <0>         0.1182
     19 N3          5.7162   -1.0936   -5.6937 N.am      1 <0>        -0.6194
     20 C15         5.3942   -2.1592   -6.6730 C.3       1 <0>         0.1027
     21 C16         3.9876   -1.7979   -7.1902 C.3       1 <0>        -0.0723
     22 C17         3.8770   -2.1072   -8.6800 C.3       1 <0>        -0.1345
     23 C18         3.9671   -3.6213   -8.8905 C.3       1 <0>        -0.0098
     24 N4          2.8869   -4.2853   -8.1509 N.4       1 <0>        -0.5048
     25 C19         3.0543   -4.0595   -6.7102 C.3       1 <0>        -0.0089
     26 C20         2.9255   -2.5640   -6.4075 C.3       1 <0>        -0.1479
     27 C21         6.3537   -1.2218   -4.5132 C.2       1 <0>         0.5417
     28 O2          6.4756   -0.2616   -3.7824 O.2       1 <0>        -0.5096
     29 C22         6.9151   -2.5583   -4.1012 C.3       1 <0>        -0.0958
     30 H2          6.2691   -3.3559   -4.4682 H         1 <0>         0.0845
     31 C23         7.0052   -2.6304   -2.5716 C.3       1 <0>        -0.1052
     32 C24         7.4067   -4.0533   -2.1770 C.3       1 <0>        -0.0935
     33 C25         8.5982   -4.4944   -2.9756 C.2       1 <0>        -0.1484
     34 C26         8.9941   -3.9192   -4.0655 C.2       1 <0>        -0.1618
     35 C27         8.3209   -2.7267   -4.6818 C.3       1 <0>        -0.0765
     36 H3         -1.0933    6.1523   -3.5143 H         1 <0>         0.0694
     37 H4         -1.3791    6.1703   -5.2711 H         1 <0>         0.0645
     38 H5         -2.6334    6.7692   -4.1592 H         1 <0>         0.0672
     39 H6         -3.9912    5.2361   -2.8726 H         1 <0>         0.1281
     40 H7         -4.9746    2.9929   -2.7164 H         1 <0>         0.1225
     41 H8         -2.9731   -0.8908   -5.2637 H         1 <0>         0.1668
     42 H9         -4.5878    0.3256   -3.7142 H         1 <0>         0.4182
     43 H10        -0.9973    3.8093   -5.5387 H         1 <0>         0.1186
     44 H11        -1.1482   -0.0936   -6.9987 H         1 <0>         0.0716
     45 H12        -0.7632    1.6439   -7.0321 H         1 <0>         0.0773
     46 H13         0.5874    1.3844   -4.9689 H         1 <0>         0.0734
     47 H14         0.2024   -0.3531   -4.9354 H         1 <0>         0.0683
     48 H15         1.3216    0.2622   -7.4544 H         1 <0>         0.3981
     49 H16         5.8628    0.5187   -7.0683 H         1 <0>         0.0862
     50 H17         5.0078    0.9028   -5.5425 H         1 <0>         0.1000
     51 H18         6.1130   -2.1527   -7.4923 H         1 <0>         0.0866
     52 H19         5.3815   -3.1336   -6.1845 H         1 <0>         0.0832
     53 H20         2.9211   -1.7437   -9.0572 H         1 <0>         0.0980
     54 H21         4.6902   -1.6165   -9.2149 H         1 <0>         0.1224
     55 H22         3.8717   -3.8465   -9.9527 H         1 <0>         0.1402
     56 H23         4.9300   -3.9816   -8.5283 H         1 <0>         0.1326
     57 H24         1.9982   -3.9107   -8.4477 H         1 <0>         0.4283
     58 H25         2.2860   -4.6078   -6.1651 H         1 <0>         0.1383
     59 H26         4.0389   -4.4093   -6.3998 H         1 <0>         0.1321
     60 H27         3.0677   -2.3952   -5.3401 H         1 <0>         0.1234
     61 H28         1.9352   -2.2170   -6.7024 H         1 <0>         0.0970
     62 H29         7.7563   -1.9255   -2.2152 H         1 <0>         0.0796
     63 H30         6.0357   -2.3890   -2.1357 H         1 <0>         0.0720
     64 H31         7.6539   -4.0777   -1.1157 H         1 <0>         0.0816
     65 H32         6.5735   -4.7298   -2.3674 H         1 <0>         0.0731
     66 H33         9.1605   -5.3446   -2.6186 H         1 <0>         0.1084
     67 H34         9.8614   -4.3242   -4.5656 H         1 <0>         0.1098
     68 H35         8.2521   -2.8638   -5.7609 H         1 <0>         0.0727
     69 H36         8.9087   -1.8337   -4.4698 H         1 <0>         0.0827
     70 H37         2.9113   -5.2761   -8.3398 H         1 <0>         0.4340
@<TRIPOS>BOND
     1    1   36 1
     2    1   37 1
     3    1   38 1
     4    1    2 1
     5    2    3 ar
     6    2   10 ar
     7    3    4 ar
     8    3   39 1
     9    4    5 ar
    10    4   40 1
    11    5    6 1
    12    5    9 ar
    13    6   42 1
    14    6    7 1
    15    7    8 2
    16    7   41 1
    17    8    9 1
    18    8   11 1
    19    9   10 ar
    20   10   43 1
    21   11   12 1
    22   11   44 1
    23   11   45 1
    24   12   13 1
    25   12   46 1
    26   12   47 1
    27   13   14 am
    28   13   48 1
    29   14   15 2
    30   14   16 1
    31   16   17 1
    32   16   21 1
    33   16   18 1
    34   18   19 1
    35   18   49 1
    36   18   50 1
    37   19   20 1
    38   19   27 am
    39   20   21 1
    40   20   51 1
    41   20   52 1
    42   21   26 1
    43   21   22 1
    44   22   23 1
    45   22   53 1
    46   22   54 1
    47   23   24 1
    48   23   55 1
    49   23   56 1
    50   24   25 1
    51   24   57 1
    52   24   70 1
    53   25   26 1
    54   25   58 1
    55   25   59 1
    56   26   60 1
    57   26   61 1
    58   27   28 2
    59   27   29 1
    60   29   30 1
    61   29   35 1
    62   29   31 1
    63   31   32 1
    64   31   62 1
    65   31   63 1
    66   32   33 1
    67   32   64 1
    68   32   65 1
    69   33   34 2
    70   33   66 1
    71   34   35 1
    72   34   67 1
    73   35   68 1
    74   35   69 1
@<TRIPOS>MOLECULE
ZINC50441550
   35    36     0     0     0
SMALL
USER_CHARGES

@<TRIPOS>ATOM
      1 C1         -0.0167    1.3782    0.0096 C.ar      1 <0>         0.0030
      2 C2          1.1704    2.0870    0.0021 C.ar      1 <0>        -0.0292
      3 C3          2.3791    1.4160   -0.0135 C.ar      1 <0>         0.0032
      4 C4          2.4038    0.0338   -0.0215 C.ar      1 <0>        -0.1076
      5 C5          1.2139   -0.6802   -0.0135 C.ar      1 <0>         0.1855
      6 C6          0.0021   -0.0041    0.0020 C.ar      1 <0>        -0.1092
      7 Br1        -1.6220   -0.9726    0.0129 Br        1 <0>         0.0085
      8 O1          1.2353   -2.0393   -0.0219 O.3       1 <0>        -0.3194
      9 C7          1.2586   -2.6956    1.2473 C.3       1 <0>         0.0286
     10 C8          1.2803   -4.2110    1.0375 C.3       1 <0>         0.0169
     11 H1          1.3876   -4.7097    2.0008 H         1 <0>         0.1889
     12 C9          2.4411   -4.5786    0.1495 C.2       1 <0>         0.5224
     13 O2          2.2424   -5.1391   -0.9075 O.2       1 <0>        -0.5040
     14 N1          3.7002   -4.2844    0.5300 N.am      1 <0>        -0.8238
     15 N2          0.0251   -4.6357    0.4034 N.4       1 <0>        -0.4658
     16 C10        -0.0053   -6.1014    0.3108 C.3       1 <0>        -0.0872
     17 C11        -0.0301   -6.7206   -1.0881 C.3       1 <0>        -0.1243
     18 C12        -1.2871   -6.7495   -0.2163 C.3       1 <0>        -0.1567
     19 Br2         4.0576   -0.8830   -0.0441 Br        1 <0>         0.0223
     20 N3          1.1471    3.5670    0.0102 N.pl3     1 <0>         0.0243
     21 O3          0.0908    4.1549    0.0234 O.2       1 <0>        -0.1270
     22 O4          2.1844    4.1879    0.0036 O.3       1 <0>        -0.1261
     23 H2         -0.9594    1.9048    0.0259 H         1 <0>         0.1822
     24 H3          3.3049    1.9722   -0.0197 H         1 <0>         0.1824
     25 H4          2.1495   -2.3921    1.7969 H         1 <0>         0.1185
     26 H5          0.3699   -2.4202    1.8151 H         1 <0>         0.1062
     27 H6          3.8592   -3.8361    1.3754 H         1 <0>         0.4082
     28 H7          4.4474   -4.5210   -0.0416 H         1 <0>         0.4256
     29 H8         -0.7559   -4.3174    0.9572 H         1 <0>         0.4321
     30 H9          0.5450   -6.6330    1.0872 H         1 <0>         0.1755
     31 H10        -0.0238   -6.0403   -1.9397 H         1 <0>         0.1232
     32 H11         0.5041   -7.6597   -1.2323 H         1 <0>         0.1312
     33 H12        -1.5799   -7.7077    0.2129 H         1 <0>         0.1352
     34 H13        -2.1078   -6.0883   -0.4945 H         1 <0>         0.1196
     35 H14        -0.0351   -4.2389   -0.5224 H         1 <0>         0.4369
@<TRIPOS>BOND
     1    1    6 ar
     2    1    2 ar
     3    1   23 1
     4    2    3 ar
     5    2   20 1
     6    3    4 ar
     7    3   24 1
     8    4    5 ar
     9    4   19 1
    10    5    6 ar
    11    5    8 1
    12    6    7 1
    13    8    9 1
    14    9   10 1
    15    9   25 1
    16    9   26 1
    17   10   11 1
    18   10   12 1
    19   10   15 1
    20   12   13 2
    21   12   14 am
    22   14   27 1
    23   14   28 1
    24   15   16 1
    25   15   29 1
    26   15   35 1
    27   16   18 1
    28   16   17 1
    29   16   30 1
    30   17   18 1
    31   17   31 1
    32   17   32 1
    33   18   33 1
    34   18   34 1
    35   20   21 2
    36   20   22 1
@<TRIPOS>MOLECULE
ZINC63557058
   63    67     0     0     0
SMALL
USER_CHARGES

@<TRIPOS>ATOM
      1 C1         -0.0169    1.3986    0.0097 C.ar      1 <0>         0.0557
      2 C2          1.1089    2.1429    0.0030 C.ar      1 <0>        -0.1912
      3 C3          2.3855    1.5158   -0.0130 C.ar      1 <0>         0.3294
      4 N1          3.6000    2.0090   -0.0224 N.pl3     1 <0>        -0.5806
      5 C4          4.5566    0.8968   -0.0378 C.3       1 <0>         0.0603
      6 C5          3.7244   -0.3660   -0.0363 C.2       1 <0>         0.0814
      7 C6          2.4332    0.0361   -0.0214 C.ar      1 <0>        -0.1652
      8 C7          1.1630   -0.6994   -0.0127 C.ar      1 <0>        -0.0018
      9 C8          0.0021   -0.0041    0.0020 C.ar      1 <0>        -0.0783
     10 Cl1        -1.5024   -0.8703    0.0123 Cl        1 <0>        -0.0133
     11 C9          4.2312   -1.7852   -0.0489 C.3       1 <0>        -0.1165
     12 C10         4.5075   -2.2153   -1.4909 C.3       1 <0>         0.1346
     13 N2          5.0002   -3.5949   -1.5032 N.am      1 <0>        -0.6226
     14 C11         6.4160   -3.9694   -1.4073 C.3       1 <0>         0.1157
     15 C12         6.4214   -5.4660   -1.0242 C.3       1 <0>        -0.1222
     16 H1          6.4708   -5.5916    0.0574 H         1 <0>         0.1255
     17 C13         5.0552   -5.9371   -1.5743 C.3       1 <0>        -0.1475
     18 C14         4.2133   -4.6805   -1.5979 C.2       1 <0>         0.5254
     19 O1          3.0043   -4.6561   -1.6913 O.2       1 <0>        -0.5135
     20 C15         7.5555   -6.1918   -1.7010 C.2       1 <0>         0.5349
     21 O2          8.3109   -5.5881   -2.4330 O.2       1 <0>        -0.5255
     22 N3          7.7304   -7.5119   -1.4928 N.am      1 <0>        -0.6950
     23 C16         8.8329   -8.2175   -2.1507 C.3       1 <0>         0.3553
     24 H2          8.9155   -7.9304   -3.1989 H         1 <0>         0.1103
     25 N4         10.1251   -8.0108   -1.4239 N.3       1 <0>        -0.5455
     26 N5         11.0611   -9.0777   -1.7583 N.3       1 <0>        -0.5288
     27 C17        10.4400  -10.4239   -1.6149 C.3       1 <0>         0.1472
     28 H3         10.5669  -10.8077   -0.6026 H         1 <0>         0.0905
     29 S1          8.6693  -10.0463   -1.9638 S.3       1 <0>        -0.2300
     30 C18        11.0063  -11.4029   -2.6453 C.3       1 <0>        -0.0640
     31 C19        10.8339  -10.8213   -4.0499 C.3       1 <0>        -0.1107
     32 C20        11.4002  -11.8003   -5.0803 C.3       1 <0>        -0.1200
     33 C21        10.6520  -13.1314   -4.9841 C.3       1 <0>        -0.1218
     34 C22        10.8244  -13.7130   -3.5795 C.3       1 <0>        -0.1165
     35 C23        10.2581  -12.7340   -2.5491 C.3       1 <0>        -0.1154
     36 H4         -0.9715    1.9036    0.0262 H         1 <0>         0.1705
     37 H5          1.0401    3.2207    0.0094 H         1 <0>         0.1706
     38 H6          5.1701    0.9413   -0.9377 H         1 <0>         0.1778
     39 H7          5.1878    0.9318    0.8501 H         1 <0>         0.1781
     40 H8          1.1550   -1.7793   -0.0180 H         1 <0>         0.1717
     41 H9          5.1518   -1.8474    0.5315 H         1 <0>         0.1178
     42 H10         3.4805   -2.4430    0.3890 H         1 <0>         0.1149
     43 H11         3.5870   -2.1531   -2.0713 H         1 <0>         0.0962
     44 H12         5.2582   -1.5575   -1.9288 H         1 <0>         0.0942
     45 H13         6.9105   -3.8241   -2.3677 H         1 <0>         0.1000
     46 H14         6.9105   -3.3806   -0.6348 H         1 <0>         0.0897
     47 H15         5.1684   -6.3441   -2.5791 H         1 <0>         0.1162
     48 H16         4.6113   -6.6781   -0.9094 H         1 <0>         0.1191
     49 H17         7.1262   -7.9947   -0.9073 H         1 <0>         0.4135
     50 H18        10.5179   -7.1057   -1.6351 H         1 <0>         0.3678
     51 H19        11.9025   -9.0069   -1.2059 H         1 <0>         0.3692
     52 H20        12.0656  -11.5664   -2.4473 H         1 <0>         0.0868
     53 H21         9.7746  -10.6578   -4.2479 H         1 <0>         0.0720
     54 H22        11.3669   -9.8730   -4.1184 H         1 <0>         0.0698
     55 H23        11.2774  -11.3859   -6.0810 H         1 <0>         0.0618
     56 H24        12.4595  -11.9638   -4.8823 H         1 <0>         0.0602
     57 H25         9.5927  -12.9679   -5.1822 H         1 <0>         0.0622
     58 H26        11.0554  -13.8288   -5.7182 H         1 <0>         0.0617
     59 H27        10.2914  -14.6613   -3.5110 H         1 <0>         0.0647
     60 H28        11.8837  -13.8765   -3.3815 H         1 <0>         0.0629
     61 H29        10.3809  -13.1484   -1.5484 H         1 <0>         0.0623
     62 H30         9.1988  -12.5705   -2.7471 H         1 <0>         0.0699
     63 H31         3.8281    2.9518   -0.0197 H         1 <0>         0.4579
@<TRIPOS>BOND
     1    1    9 ar
     2    1    2 ar
     3    1   36 1
     4    2    3 ar
     5    2   37 1
     6    3    7 ar
     7    3    4 2
     8    4    5 1
     9    4   63 1
    10    5    6 1
    11    5   38 1
    12    5   39 1
    13    6    7 2
    14    6   11 1
    15    7    8 ar
    16    8    9 ar
    17    8   40 1
    18    9   10 1
    19   11   12 1
    20   11   41 1
    21   11   42 1
    22   12   13 1
    23   12   43 1
    24   12   44 1
    25   13   18 am
    26   13   14 1
    27   14   15 1
    28   14   45 1
    29   14   46 1
    30   15   16 1
    31   15   17 1
    32   15   20 1
    33   17   18 1
    34   17   47 1
    35   17   48 1
    36   18   19 2
    37   20   21 2
    38   20   22 am
    39   22   23 1
    40   22   49 1
    41   23   24 1
    42   23   29 1
    43   23   25 1
    44   25   26 1
    45   25   50 1
    46   26   27 1
    47   26   51 1
    48   27   28 1
    49   27   29 1
    50   27   30 1
    51   30   35 1
    52   30   31 1
    53   30   52 1
    54   31   32 1
    55   31   53 1
    56   31   54 1
    57   32   33 1
    58   32   55 1
    59   32   56 1
    60   33   34 1
    61   33   57 1
    62   33   58 1
    63   34   35 1
    64   34   59 1
    65   34   60 1
    66   35   61 1
    67   35   62 1
@<TRIPOS>MOLECULE
ZINC09117952
   52    55     0     0     0
SMALL
USER_CHARGES
6-[(bis(2-thienylmethyl)amino)methyl]-N'-(o-tolyl)-1,3,5-triazine-2,4-diamine
@<TRIPOS>ATOM
      1 C1         -1.0215    1.8858   -0.2414 C.3       1 <0>        -0.1189
      2 C2          0.1524    1.1746    0.3807 C.ar      1 <0>        -0.1065
      3 C3          1.3169    1.8671    0.6498 C.ar      1 <0>        -0.0982
      4 C4          2.3964    1.2140    1.2153 C.ar      1 <0>        -0.1217
      5 C5          2.3143   -0.1341    1.5135 C.ar      1 <0>        -0.1051
      6 C6          1.1531   -0.8322    1.2471 C.ar      1 <0>        -0.1171
      7 C7          0.0667   -0.1791    0.6789 C.ar      1 <0>         0.1387
      8 N1         -1.1105   -0.8832    0.4074 N.pl3     1 <0>        -0.6067
      9 C8         -1.0684   -2.2500    0.2124 C.ar      1 <0>         0.6368
     10 N2         -2.1992   -2.9385    0.0724 N.ar      1 <0>        -0.6206
     11 C9         -2.1599   -4.2460   -0.1142 C.ar      1 <0>         0.3849
     12 N3         -0.9989   -4.8756   -0.1625 N.ar      1 <0>        -0.6184
     13 C10         0.1360   -4.1942   -0.0233 C.ar      1 <0>         0.6392
     14 N4          0.1007   -2.8785    0.1589 N.ar      1 <0>        -0.6170
     15 N5          1.3478   -4.8525   -0.0734 N.pl3     1 <0>        -0.7888
     16 C11        -3.4425   -5.0214   -0.2717 C.3       1 <0>         0.0726
     17 C12        -4.9166   -6.0169   -1.9145 C.3       1 <0>         0.0951
     18 C13        -4.9652   -6.4012   -3.3709 C.2       1 <0>        -0.2675
     19 C14        -4.3511   -7.4310   -4.0029 C.2       1 <0>        -0.0765
     20 C15        -4.5447   -7.5948   -5.3617 C.2       1 <0>        -0.1795
     21 C16        -5.3344   -6.7144   -6.0240 C.2       1 <0>        -0.1175
     22 S1         -5.8405   -5.6135   -4.7128 S.3       1 <0>         0.0869
     23 C17        -4.1449   -3.7400   -2.2022 C.3       1 <0>         0.0952
     24 C18        -5.2827   -3.1664   -1.3976 C.2       1 <0>        -0.2543
     25 C19        -5.2388   -2.4465   -0.2499 C.2       1 <0>        -0.0815
     26 C20        -6.4236   -2.0155    0.3167 C.2       1 <0>        -0.1787
     27 C21        -7.5949   -2.3344   -0.2863 C.2       1 <0>        -0.1189
     28 S2         -7.0386   -3.2653   -1.7045 S.3       1 <0>         0.0760
     29 H1         -1.6620    2.2860    0.5445 H         1 <0>         0.0751
     30 H2         -0.6615    2.7020   -0.8677 H         1 <0>         0.0774
     31 H3         -1.5902    1.1836   -0.8511 H         1 <0>         0.0592
     32 H4          1.3844    2.9197    0.4178 H         1 <0>         0.1307
     33 H5          3.3058    1.7577    1.4247 H         1 <0>         0.1279
     34 H6          3.1594   -0.6413    1.9549 H         1 <0>         0.1277
     35 H7          1.0895   -1.8847    1.4805 H         1 <0>         0.1459
     36 H8         -1.9567   -0.4118    0.3560 H         1 <0>         0.4288
     37 H9          1.3729   -5.8125   -0.2102 H         1 <0>         0.4251
     38 H10         2.1744   -4.3553    0.0281 H         1 <0>         0.4265
     39 H11        -3.3037   -6.0340    0.1072 H         1 <0>         0.1612
     40 H12        -4.2362   -4.5289    0.2900 H         1 <0>         0.1604
     41 H13        -4.7619   -6.9094   -1.3082 H         1 <0>         0.1532
     42 H14        -5.8572   -5.5442   -1.6318 H         1 <0>         0.1432
     43 H15        -3.7221   -8.1151   -3.4525 H         1 <0>         0.1455
     44 H16        -4.0701   -8.4093   -5.8887 H         1 <0>         0.1499
     45 H17        -5.5907   -6.6861   -7.0727 H         1 <0>         0.1994
     46 H18        -3.2745   -3.0895   -2.1157 H         1 <0>         0.1410
     47 H19        -4.4408   -3.8135   -3.2487 H         1 <0>         0.1361
     48 H20        -4.2921   -2.2109    0.2133 H         1 <0>         0.1636
     49 H21        -6.4164   -1.4371    1.2288 H         1 <0>         0.1474
     50 H22        -8.6031   -2.0893    0.0136 H         1 <0>         0.1978
     51 N6         -3.7872   -5.0860   -1.7075 N.4       1 <0>        -0.3911
     52 H23        -2.9728   -5.4282   -2.2309 H         1 <0>         0.4358
@<TRIPOS>BOND
     1    1    2 1
     2    1   29 1
     3    1   30 1
     4    1   31 1
     5    2    7 ar
     6    2    3 ar
     7    3    4 ar
     8    3   32 1
     9    4    5 ar
    10    4   33 1
    11    5    6 ar
    12    5   34 1
    13    6    7 ar
    14    6   35 1
    15    7    8 1
    16    8    9 1
    17    8   36 1
    18    9   14 ar
    19    9   10 ar
    20   10   11 ar
    21   11   12 ar
    22   11   16 1
    23   12   13 ar
    24   13   14 ar
    25   13   15 1
    26   15   37 1
    27   15   38 1
    28   16   39 1
    29   16   40 1
    30   16   51 1
    31   17   18 1
    32   17   41 1
    33   17   42 1
    34   17   51 1
    35   18   22 1
    36   18   19 2
    37   19   20 1
    38   19   43 1
    39   20   21 2
    40   20   44 1
    41   21   22 1
    42   21   45 1
    43   23   24 1
    44   23   46 1
    45   23   47 1
    46   23   51 1
    47   24   28 1
    48   24   25 2
    49   25   26 1
    50   25   48 1
    51   26   27 2
    52   26   49 1
    53   27   28 1
    54   27   50 1
    55   51   52 1
@<TRIPOS>MOLECULE
ZINC39372006
   56    59     0     0     0
SMALL
USER_CHARGES

@<TRIPOS>ATOM
      1 C1         -0.4577    1.6709   -0.3799 C.3       1 <0>         0.0266
      2 O1         -0.3414    0.2501   -0.2809 O.3       1 <0>        -0.3182
      3 C2          0.3293   -0.3855   -1.2788 C.ar      1 <0>         0.0917
      4 C3          0.8682    0.3457   -2.3270 C.ar      1 <0>        -0.1642
      5 C4          1.5495   -0.2990   -3.3407 C.ar      1 <0>        -0.1230
      6 C5          1.6949   -1.6796   -3.3104 C.ar      1 <0>         0.1953
      7 C6          1.1550   -2.4109   -2.2606 C.ar      1 <0>        -0.1455
      8 C7          0.4789   -1.7640   -1.2448 C.ar      1 <0>        -0.1086
      9 N1          2.3846   -2.3337   -4.3374 N.pl3     1 <0>        -0.4940
     10 C8          2.5992   -3.7873   -4.4202 C.3       1 <0>         0.0970
     11 C9          3.3346   -4.0191   -5.7621 C.3       1 <0>        -0.1629
     12 H1          2.9357   -4.8898   -6.2826 H         1 <0>         0.1296
     13 C10         2.9927   -2.7087   -6.5222 C.3       1 <0>         0.1348
     14 H2          2.0198   -2.7822   -7.0082 H         1 <0>         0.1341
     15 N2          2.9565   -1.7168   -5.4201 N.3       1 <0>        -0.4269
     16 C11         4.0676   -2.3694   -7.5224 C.ar      1 <0>        -0.0995
     17 C12         5.0927   -1.5110   -7.1711 C.ar      1 <0>        -0.1100
     18 C13         6.0787   -1.1997   -8.0884 C.ar      1 <0>        -0.1022
     19 C14         6.0404   -1.7465   -9.3577 C.ar      1 <0>        -0.0925
     20 C15         5.0162   -2.6048   -9.7100 C.ar      1 <0>        -0.0993
     21 C16         4.0319   -2.9213   -8.7903 C.ar      1 <0>        -0.0275
     22 Cl1         2.7486   -4.0045   -9.2300 Cl        1 <0>        -0.0537
     23 C17         4.8433   -4.1539   -5.5468 C.3       1 <0>        -0.0044
     24 N3          5.1222   -5.3815   -4.7898 N.4       1 <0>        -0.5049
     25 C18         6.5708   -5.5110   -4.5831 C.3       1 <0>         0.0106
     26 C19         6.8612   -6.7896   -3.7946 C.3       1 <0>        -0.1782
     27 S1          8.6500   -6.9495   -3.5394 S.3       1 <0>         0.0925
     28 C20         8.8185   -8.4492   -2.6300 C.2       1 <0>         0.1953
     29 H3          7.9432  -11.0524   -1.1539 H         1 <0>         0.4503
     30 N4          9.9716   -8.9800   -2.2104 N.2       1 <0>        -0.5168
     31 C21         9.7372  -10.0945   -1.5657 C.2       1 <0>         0.2916
     32 N5          8.4103  -10.3046   -1.5584 N.pl3     1 <0>        -0.4692
     33 N6          7.8322   -9.2264   -2.2480 N.2       1 <0>        -0.3214
     34 H4          0.5369    2.1167   -0.3945 H         1 <0>         0.0555
     35 H5         -0.9851    1.9292   -1.2981 H         1 <0>         0.0563
     36 H6         -1.0134    2.0506    0.4775 H         1 <0>         0.1028
     37 H7          0.7548    1.4194   -2.3506 H         1 <0>         0.1328
     38 H8          1.9688    0.2705   -4.1570 H         1 <0>         0.1325
     39 H9          1.2676   -3.4847   -2.2363 H         1 <0>         0.1234
     40 H10         0.0631   -2.3321   -0.4258 H         1 <0>         0.1349
     41 H11         3.2167   -4.1256   -3.5882 H         1 <0>         0.0573
     42 H12         1.6430   -4.3106   -4.4186 H         1 <0>         0.0936
     43 H13         3.8855   -1.3895   -5.2009 H         1 <0>         0.3267
     44 H14         5.1229   -1.0832   -6.1799 H         1 <0>         0.1334
     45 H15         6.8791   -0.5287   -7.8136 H         1 <0>         0.1386
     46 H16         6.8109   -1.5026  -10.0741 H         1 <0>         0.1415
     47 H17         4.9863   -3.0317  -10.7016 H         1 <0>         0.1427
     48 H18         5.3455   -4.2010   -6.5131 H         1 <0>         0.1458
     49 H19         5.2092   -3.2920   -4.9889 H         1 <0>         0.1336
     50 H20         4.6574   -5.3380   -3.8953 H         1 <0>         0.4274
     51 H21         7.0729   -5.5580   -5.5494 H         1 <0>         0.1472
     52 H22         6.9366   -4.6491   -4.0251 H         1 <0>         0.1455
     53 H23         6.3591   -6.7425   -2.8283 H         1 <0>         0.1161
     54 H24         6.4953   -7.6515   -4.3526 H         1 <0>         0.1170
     55 H25        10.4821  -10.7351   -1.1173 H         1 <0>         0.2364
     56 H26         4.7835   -6.1794   -5.3063 H         1 <0>         0.4324
@<TRIPOS>BOND
     1    1    2 1
     2    1   34 1
     3    1   35 1
     4    1   36 1
     5    2    3 1
     6    3    8 ar
     7    3    4 ar
     8    4    5 ar
     9    4   37 1
    10    5    6 ar
    11    5   38 1
    12    6    7 ar
    13    6    9 1
    14    7    8 ar
    15    7   39 1
    16    8   40 1
    17    9   15 1
    18    9   10 1
    19   10   11 1
    20   10   41 1
    21   10   42 1
    22   11   12 1
    23   11   13 1
    24   11   23 1
    25   13   14 1
    26   13   15 1
    27   13   16 1
    28   15   43 1
    29   16   21 ar
    30   16   17 ar
    31   17   18 ar
    32   17   44 1
    33   18   19 ar
    34   18   45 1
    35   19   20 ar
    36   19   46 1
    37   20   21 ar
    38   20   47 1
    39   21   22 1
    40   23   24 1
    41   23   48 1
    42   23   49 1
    43   24   25 1
    44   24   50 1
    45   24   56 1
    46   25   26 1
    47   25   51 1
    48   25   52 1
    49   26   27 1
    50   26   53 1
    51   26   54 1
    52   27   28 1
    53   28   30 1
    54   28   33 2
    55   29   32 1
    56   30   31 2
    57   31   55 1
    58   31   32 1
    59   32   33 1
@<TRIPOS>MOLECULE
ZINC39632029
   78    80     0     0     0
SMALL
USER_CHARGES

@<TRIPOS>ATOM
      1 C1          0.7834   -0.6551   -0.3221 C.3       1 <0>        -0.1686
      2 C2          0.3812   -1.0089    1.1111 C.3       1 <0>         0.1423
      3 H1          0.4447   -0.1184    1.7366 H         1 <0>         0.0911
      4 C3          1.3252   -2.0829    1.6554 C.3       1 <0>        -0.1339
      5 C4          1.0024   -2.3471    3.1275 C.3       1 <0>        -0.1127
      6 C5          1.9463   -3.4211    3.6718 C.3       1 <0>        -0.1103
      7 C6          1.6235   -3.6853    5.1438 C.3       1 <0>         0.1297
      8 C7          2.6454   -4.6664    5.7219 C.3       1 <0>        -0.1843
      9 C8          1.6822   -2.3698    5.9229 C.3       1 <0>        -0.1829
     10 O1          0.3128   -4.2444    5.2511 O.3       1 <0>        -0.5693
     11 N1         -0.9932   -1.5159    1.1215 N.am      1 <0>        -0.7203
     12 C9         -2.0286   -0.6552    1.1807 C.2       1 <0>         0.5207
     13 O2         -1.8226    0.5391    1.2254 O.2       1 <0>        -0.5219
     14 C10        -3.4424   -1.1768    1.1914 C.3       1 <0>        -0.1148
     15 H2         -3.4987   -2.1296    0.6650 H         1 <0>         0.1104
     16 C11        -4.3999   -0.1491    0.5476 C.3       1 <0>         0.1103
     17 N2         -5.6393   -0.2348    1.3554 N.am      1 <0>        -0.6258
     18 C12        -5.1605   -0.3920    2.7497 C.3       1 <0>         0.1074
     19 C13        -3.9446   -1.3331    2.6366 C.3       1 <0>        -0.0703
     20 C14        -4.3679   -2.7758    2.8958 C.3       1 <0>        -0.1334
     21 C15        -4.8097   -2.9186    4.3550 C.3       1 <0>        -0.0105
     22 N3         -3.7014   -2.5457    5.2424 N.4       1 <0>        -0.5046
     23 C16        -3.3617   -1.1305    5.0521 C.3       1 <0>        -0.0068
     24 C17        -2.8590   -0.9119    3.6222 C.3       1 <0>        -0.1478
     25 C18        -6.9140   -0.1817    0.9208 C.2       1 <0>         0.5402
     26 O3         -7.8287   -0.2663    1.7126 O.2       1 <0>        -0.5287
     27 C19        -7.2026   -0.0172   -0.5492 C.3       1 <0>        -0.1322
     28 C20        -8.7161    0.0132   -0.7714 C.3       1 <0>        -0.0580
     29 C21        -9.0047    0.1776   -2.2414 C.ar      1 <0>        -0.1292
     30 C22        -9.1269    1.4438   -2.7833 C.ar      1 <0>        -0.0740
     31 C23        -9.3919    1.5972   -4.1303 C.ar      1 <0>        -0.1488
     32 C24        -9.5351    0.4796   -4.9396 C.ar      1 <0>         0.1292
     33 C25        -9.4116   -0.7898   -4.3935 C.ar      1 <0>        -0.2066
     34 C26        -9.1414   -0.9378   -3.0469 C.ar      1 <0>        -0.0747
     35 O4         -9.7962    0.6279   -6.2650 O.3       1 <0>        -0.3166
     36 C27        -9.9311   -0.5669   -7.0373 C.3       1 <0>         0.0262
     37 H3          1.8060   -0.2778   -0.3298 H         1 <0>         0.0706
     38 H4          0.7199   -1.5455   -0.9476 H         1 <0>         0.0593
     39 H5          0.1109    0.1100   -0.7099 H         1 <0>         0.0627
     40 H6          1.1969   -3.0025    1.0846 H         1 <0>         0.0713
     41 H7          2.3560   -1.7401    1.5654 H         1 <0>         0.0843
     42 H8          1.1306   -1.4274    3.6983 H         1 <0>         0.0654
     43 H9         -0.0284   -2.6898    3.2175 H         1 <0>         0.0615
     44 H10         1.8181   -4.3408    3.1009 H         1 <0>         0.0722
     45 H11         2.9771   -3.0783    3.5817 H         1 <0>         0.0796
     46 H12         3.6451   -4.2399    5.6401 H         1 <0>         0.0697
     47 H13         2.4154   -4.8546    6.7706 H         1 <0>         0.0598
     48 H14         2.6036   -5.6036    5.1669 H         1 <0>         0.0660
     49 H15         0.9542   -1.6709    5.5110 H         1 <0>         0.0629
     50 H16         1.4522   -2.5580    6.9716 H         1 <0>         0.0574
     51 H17         2.6819   -1.9433    5.8410 H         1 <0>         0.0708
     52 H18         0.0408   -4.4379    6.1587 H         1 <0>         0.3726
     53 H19        -1.1580   -2.4712    1.0857 H         1 <0>         0.3995
     54 H20        -3.9765    0.8536    0.6064 H         1 <0>         0.1005
     55 H21        -4.6030   -0.4166   -0.4894 H         1 <0>         0.0936
     56 H22        -4.8597    0.5721    3.1597 H         1 <0>         0.0833
     57 H23        -5.9347   -0.8450    3.3690 H         1 <0>         0.0881
     58 H24        -5.1969   -3.0357    2.2375 H         1 <0>         0.1169
     59 H25        -3.5270   -3.4420    2.7033 H         1 <0>         0.0967
     60 H26        -5.6610   -2.2641    4.5425 H         1 <0>         0.1335
     61 H27        -5.0973   -3.9522    4.5478 H         1 <0>         0.1391
     62 H28        -3.9743   -2.6987    6.2017 H         1 <0>         0.4329
     63 H29        -4.2472   -0.5183    5.2232 H         1 <0>         0.1324
     64 H30        -2.5819   -0.8461    5.7586 H         1 <0>         0.1375
     65 H31        -1.9639   -1.5111    3.4556 H         1 <0>         0.0994
     66 H32        -2.6242    0.1425    3.4762 H         1 <0>         0.1251
     67 H33        -6.7646    0.9160   -0.9033 H         1 <0>         0.0992
     68 H34        -6.7712   -0.8531   -1.0999 H         1 <0>         0.0962
     69 H35        -9.1541   -0.9200   -0.4173 H         1 <0>         0.0787
     70 H36        -9.1475    0.8490   -0.2207 H         1 <0>         0.0807
     71 H37        -9.0153    2.3136   -2.1528 H         1 <0>         0.1294
     72 H38        -9.4879    2.5864   -4.5530 H         1 <0>         0.1327
     73 H39        -9.5227   -1.6614   -5.0215 H         1 <0>         0.1291
     74 H40        -9.0408   -1.9257   -2.6221 H         1 <0>         0.1232
     75 H41        -9.0060   -1.1407   -6.9835 H         1 <0>         0.0559
     76 H42       -10.7527   -1.1643   -6.6420 H         1 <0>         0.0569
     77 H43       -10.1377   -0.3070   -8.0755 H         1 <0>         0.1032
     78 H44        -2.8960   -3.1151    5.0298 H         1 <0>         0.4299
@<TRIPOS>BOND
     1    1    2 1
     2    1   37 1
     3    1   38 1
     4    1   39 1
     5    2    3 1
     6    2    4 1
     7    2   11 1
     8    4    5 1
     9    4   40 1
    10    4   41 1
    11    5    6 1
    12    5   42 1
    13    5   43 1
    14    6    7 1
    15    6   44 1
    16    6   45 1
    17    7    8 1
    18    7    9 1
    19    7   10 1
    20    8   46 1
    21    8   47 1
    22    8   48 1
    23    9   49 1
    24    9   50 1
    25    9   51 1
    26   10   52 1
    27   11   12 am
    28   11   53 1
    29   12   13 2
    30   12   14 1
    31   14   15 1
    32   14   19 1
    33   14   16 1
    34   16   17 1
    35   16   54 1
    36   16   55 1
    37   17   18 1
    38   17   25 am
    39   18   19 1
    40   18   56 1
    41   18   57 1
    42   19   24 1
    43   19   20 1
    44   20   21 1
    45   20   58 1
    46   20   59 1
    47   21   22 1
    48   21   60 1
    49   21   61 1
    50   22   23 1
    51   22   62 1
    52   22   78 1
    53   23   24 1
    54   23   63 1
    55   23   64 1
    56   24   65 1
    57   24   66 1
    58   25   26 2
    59   25   27 1
    60   27   28 1
    61   27   67 1
    62   27   68 1
    63   28   29 1
    64   28   69 1
    65   28   70 1
    66   29   34 ar
    67   29   30 ar
    68   30   31 ar
    69   30   71 1
    70   31   32 ar
    71   31   72 1
    72   32   33 ar
    73   32   35 1
    74   33   34 ar
    75   33   73 1
    76   34   74 1
    77   35   36 1
    78   36   75 1
    79   36   76 1
    80   36   77 1
@<TRIPOS>MOLECULE
ZINC59876074
   64    66     0     0     0
SMALL
USER_CHARGES

@<TRIPOS>ATOM
      1 C1          8.6014    0.3018    2.9087 C.3       1 <0>        -0.1488
      2 C2          8.3890   -1.1153    3.4450 C.3       1 <0>        -0.0990
      3 C3          6.9310   -1.3166    3.7688 C.ar      1 <0>        -0.0447
      4 C4          6.4544   -1.0108    5.0298 C.ar      1 <0>        -0.1032
      5 C5          5.1170   -1.1954    5.3268 C.ar      1 <0>        -0.0866
      6 C6          4.2561   -1.6854    4.3626 C.ar      1 <0>        -0.1498
      7 C7          4.7325   -1.9903    3.1012 C.ar      1 <0>        -0.1151
      8 C8          6.0691   -1.8017    2.8030 C.ar      1 <0>        -0.1015
      9 C9          2.7983   -1.8876    4.6866 C.3       1 <0>         0.0680
     10 H1          2.5330   -1.2877    5.5571 H         1 <0>         0.1482
     11 C10         2.5433   -3.3656    4.9888 C.3       1 <0>         0.1042
     12 N1          3.2660   -3.7472    6.2046 N.am      1 <0>        -0.7316
     13 C11         3.2759   -5.0335    6.6070 C.2       1 <0>         0.5204
     14 O1          2.6866   -5.8750    5.9625 O.2       1 <0>        -0.5229
     15 C12         4.0193   -5.4260    7.8577 C.3       1 <0>        -0.1390
     16 C13         3.8724   -6.9316    8.0870 C.3       1 <0>        -0.1050
     17 C14         4.6271   -7.3302    9.3568 C.3       1 <0>        -0.1190
     18 C15         4.4801   -8.8357    9.5861 C.3       1 <0>        -0.1023
     19 C16         5.2349   -9.2343   10.8559 C.3       1 <0>        -0.0422
     20 H2          4.9091   -8.6355   11.7064 H         1 <0>         0.1125
     21 C17         5.0746  -10.7421   11.1458 C.3       1 <0>         0.1222
     22 H3          4.2664  -10.9018   11.8594 H         1 <0>         0.1086
     23 C18         6.3577  -11.4122   11.6463 C.3       1 <0>         0.1211
     24 H4          6.1780  -11.8932   12.6078 H         1 <0>         0.1088
     25 C19         7.5596  -10.4491   11.7524 C.3       1 <0>        -0.0821
     26 S1          7.0593   -9.1008   10.6118 S.3       1 <0>        -0.2745
     27 N2          6.6538  -12.4267   10.6223 N.am      1 <0>        -0.7331
     28 C20         5.7113  -12.3749    9.6711 C.2       1 <0>         0.7040
     29 O2          5.7083  -13.1061    8.6997 O.2       1 <0>        -0.5809
     30 N3          4.7821  -11.4454    9.8867 N.am      1 <0>        -0.7276
     31 N4          1.9797   -1.4741    3.5391 N.4       1 <0>        -0.3816
     32 C21         0.5579   -1.6545    3.8614 C.3       1 <0>        -0.0549
     33 C22         2.2377   -0.0596    3.2378 C.3       1 <0>        -0.0485
     34 H5          8.2934    1.0258    3.6631 H         1 <0>         0.0576
     35 H6          9.6560    0.4473    2.6746 H         1 <0>         0.0678
     36 H7          8.0062    0.4418    2.0064 H         1 <0>         0.0565
     37 H8          8.6969   -1.8393    2.6907 H         1 <0>         0.0806
     38 H9          8.9842   -1.2553    4.3474 H         1 <0>         0.0815
     39 H10         7.1269   -0.6280    5.7831 H         1 <0>         0.1371
     40 H11         4.7447   -0.9572    6.3122 H         1 <0>         0.1323
     41 H12         4.0600   -2.3734    2.3480 H         1 <0>         0.1190
     42 H13         6.4406   -2.0364    1.8164 H         1 <0>         0.1355
     43 H14         1.4753   -3.5275    5.1350 H         1 <0>         0.0902
     44 H15         2.8918   -3.9727    4.1533 H         1 <0>         0.0915
     45 H16         3.7373   -3.0741    6.7201 H         1 <0>         0.4057
     46 H17         5.0746   -5.1768    7.7465 H         1 <0>         0.0985
     47 H18         3.6065   -4.8867    8.7102 H         1 <0>         0.0989
     48 H19         2.8171   -7.1809    8.1982 H         1 <0>         0.0726
     49 H20         4.2852   -7.4710    7.2345 H         1 <0>         0.0728
     50 H21         5.6824   -7.0809    9.2456 H         1 <0>         0.0705
     51 H22         4.2143   -6.7908   10.2093 H         1 <0>         0.0674
     52 H23         3.4249   -9.0850    9.6973 H         1 <0>         0.0798
     53 H24         4.8930   -9.3751    8.7336 H         1 <0>         0.0830
     54 H25         7.6634  -10.0632   12.7665 H         1 <0>         0.1063
     55 H26         8.4792  -10.9332   11.4236 H         1 <0>         0.1187
     56 H27         7.4095  -13.0347   10.6339 H         1 <0>         0.4332
     57 H28         4.0289  -11.2650    9.3027 H         1 <0>         0.4316
     58 H29         0.3302   -1.1453    4.7979 H         1 <0>         0.1257
     59 H30        -0.0521   -1.2345    3.0618 H         1 <0>         0.1311
     60 H31         0.3407   -2.7178    3.9639 H         1 <0>         0.1271
     61 H32         3.2927    0.0743    2.9986 H         1 <0>         0.1254
     62 H33         1.6303    0.2472    2.3864 H         1 <0>         0.1285
     63 H34         1.9817    0.5491    4.1050 H         1 <0>         0.1242
     64 H35         2.2167   -2.0376    2.7363 H         1 <0>         0.4252
@<TRIPOS>BOND
     1    1    2 1
     2    1   34 1
     3    1   35 1
     4    1   36 1
     5    2    3 1
     6    2   37 1
     7    2   38 1
     8    3    8 ar
     9    3    4 ar
    10    4    5 ar
    11    4   39 1
    12    5    6 ar
    13    5   40 1
    14    6    7 ar
    15    6    9 1
    16    7    8 ar
    17    7   41 1
    18    8   42 1
    19    9   10 1
    20    9   11 1
    21    9   31 1
    22   11   12 1
    23   11   43 1
    24   11   44 1
    25   12   13 am
    26   12   45 1
    27   13   14 2
    28   13   15 1
    29   15   16 1
    30   15   46 1
    31   15   47 1
    32   16   17 1
    33   16   48 1
    34   16   49 1
    35   17   18 1
    36   17   50 1
    37   17   51 1
    38   18   19 1
    39   18   52 1
    40   18   53 1
    41   19   20 1
    42   19   26 1
    43   19   21 1
    44   21   22 1
    45   21   30 1
    46   21   23 1
    47   23   24 1
    48   23   25 1
    49   23   27 1
    50   25   26 1
    51   25   54 1
    52   25   55 1
    53   27   28 am
    54   27   56 1
    55   28   29 2
    56   28   30 am
    57   30   57 1
    58   31   32 1
    59   31   33 1
    60   31   64 1
    61   32   58 1
    62   32   59 1
    63   32   60 1
    64   33   61 1
    65   33   62 1
    66   33   63 1
@<TRIPOS>MOLECULE
ZINC63941240
   65    68     0     0     0
SMALL
USER_CHARGES

@<TRIPOS>ATOM
      1 C1         -0.0187    1.5258    0.0104 C.3       1 <0>        -0.1550
      2 C2          0.0021   -0.0041    0.0020 C.3       1 <0>        -0.1250
      3 C3         -1.4333   -0.5336    0.0129 C.3       1 <0>        -0.1186
      4 C4         -1.4126   -2.0635    0.0045 C.3       1 <0>        -0.1190
      5 C5         -2.8479   -2.5931    0.0153 C.3       1 <0>        -0.0925
      6 C6         -2.8272   -4.1229    0.0069 C.3       1 <0>         0.0979
      7 H1         -2.2948   -4.5151    0.8734 H         1 <0>         0.0819
      8 N1         -4.2103   -4.6877   -0.0865 N.3       1 <0>        -0.4823
      9 N2         -4.1577   -6.0528   -0.5964 N.3       1 <0>        -0.4992
     10 C7         -3.3281   -6.1514   -1.8296 C.3       1 <0>         0.3737
     11 H2         -3.9308   -5.9804   -2.7215 H         1 <0>         0.1500
     12 S1         -2.1251   -4.7786   -1.5689 S.3       1 <0>        -0.2805
     13 N3         -2.6433   -7.4445   -1.9010 N.am      1 <0>        -0.7231
     14 C8         -3.3268   -8.5503   -2.2565 C.2       1 <0>         0.5312
     15 O1         -4.5088   -8.4749   -2.5174 O.2       1 <0>        -0.5028
     16 C9         -2.6223   -9.8805   -2.3300 C.3       1 <0>        -0.1229
     17 H3         -2.1911  -10.1451   -1.3645 H         1 <0>         0.1244
     18 C10        -1.5414   -9.8740   -3.4357 C.3       1 <0>        -0.1481
     19 C11        -1.6078  -11.2646   -4.0276 C.2       1 <0>         0.5254
     20 O2         -0.7502  -11.7646   -4.7243 O.2       1 <0>        -0.5149
     21 N4         -2.7554  -11.8655   -3.6687 N.am      1 <0>        -0.6224
     22 C12        -3.5788  -10.9858   -2.8298 C.3       1 <0>         0.1158
     23 C13        -3.1355  -13.2242   -4.0631 C.3       1 <0>         0.1344
     24 C14        -2.6253  -14.2199   -3.0193 C.3       1 <0>        -0.1120
     25 C15        -3.0163  -15.6175   -3.4251 C.2       1 <0>         0.0655
     26 C16        -2.2607  -16.5074   -4.1082 C.ar      1 <0>        -0.1618
     27 C17        -0.9012  -16.4425   -4.6578 C.ar      1 <0>        -0.0208
     28 C18        -0.4046  -17.5191   -5.3083 C.ar      1 <0>        -0.1133
     29 C19        -1.1540  -18.6925   -5.4708 C.ar      1 <0>         0.0593
     30 C20        -2.4095  -18.8277   -4.9940 C.ar      1 <0>        -0.2084
     31 C21        -3.0312  -17.7579   -4.2927 C.ar      1 <0>         0.3267
     32 N5         -4.2169  -17.6456   -3.7451 N.pl3     1 <0>        -0.5868
     33 C22        -4.3306  -16.3115   -3.1452 C.3       1 <0>         0.0621
     34 C23         0.9909  -17.4555   -5.8737 C.3       1 <0>        -0.1281
     35 H4          1.0039    1.9031    0.0027 H         1 <0>         0.0548
     36 H5         -0.5459    1.8868   -0.8726 H         1 <0>         0.0548
     37 H6         -0.5289    1.8773    0.9072 H         1 <0>         0.0542
     38 H7          0.5123   -0.3556   -0.8948 H         1 <0>         0.0610
     39 H8          0.5293   -0.3651    0.8851 H         1 <0>         0.0600
     40 H9         -1.9435   -0.1821    0.9097 H         1 <0>         0.0635
     41 H10        -1.9605   -0.1726   -0.8702 H         1 <0>         0.0655
     42 H11        -0.9024   -2.4150   -0.8923 H         1 <0>         0.0681
     43 H12        -0.8854   -2.4246    0.8875 H         1 <0>         0.0619
     44 H13        -3.3581   -2.2415    0.9121 H         1 <0>         0.0824
     45 H14        -3.3751   -2.2320   -0.8677 H         1 <0>         0.0890
     46 H15        -4.6760   -4.6535    0.8079 H         1 <0>         0.3629
     47 H16        -3.8290   -6.6912    0.1125 H         1 <0>         0.3251
     48 H17        -1.6979   -7.5048   -1.6923 H         1 <0>         0.4114
     49 H18        -1.7749   -9.1255   -4.1929 H         1 <0>         0.1162
     50 H19        -0.5570   -9.6889   -3.0058 H         1 <0>         0.1183
     51 H20        -3.9866  -11.5419   -1.9856 H         1 <0>         0.0903
     52 H21        -4.3849  -10.5489   -3.4193 H         1 <0>         0.0999
     53 H22        -4.2213  -13.2927   -4.1303 H         1 <0>         0.0933
     54 H23        -2.6960  -13.4574   -5.0329 H         1 <0>         0.0956
     55 H24        -1.5396  -14.1514   -2.9521 H         1 <0>         0.1123
     56 H25        -3.0648  -13.9867   -2.0495 H         1 <0>         0.1142
     57 H26        -0.3065  -15.5481   -4.5447 H         1 <0>         0.1608
     58 H27        -0.7086  -19.5223   -5.9995 H         1 <0>         0.1607
     59 H28        -2.9450  -19.7532   -5.1461 H         1 <0>         0.1615
     60 H29        -4.4909  -16.3931   -2.0701 H         1 <0>         0.1735
     61 H30        -5.1512  -15.7627   -3.6074 H         1 <0>         0.1727
     62 H31         1.7026  -17.8021   -5.1245 H         1 <0>         0.0867
     63 H32         1.0544  -18.0913   -6.7568 H         1 <0>         0.0816
     64 H33         1.2249  -16.4271   -6.1488 H         1 <0>         0.0820
     65 H34        -4.9030  -18.3312   -3.7347 H         1 <0>         0.4555
@<TRIPOS>BOND
     1    1    2 1
     2    1   35 1
     3    1   36 1
     4    1   37 1
     5    2    3 1
     6    2   38 1
     7    2   39 1
     8    3    4 1
     9    3   40 1
    10    3   41 1
    11    4    5 1
    12    4   42 1
    13    4   43 1
    14    5    6 1
    15    5   44 1
    16    5   45 1
    17    6    7 1
    18    6   12 1
    19    6    8 1
    20    8    9 1
    21    8   46 1
    22    9   10 1
    23    9   47 1
    24   10   11 1
    25   10   12 1
    26   10   13 1
    27   13   14 am
    28   13   48 1
    29   14   15 2
    30   14   16 1
    31   16   17 1
    32   16   22 1
    33   16   18 1
    34   18   19 1
    35   18   49 1
    36   18   50 1
    37   19   20 2
    38   19   21 am
    39   21   22 1
    40   21   23 1
    41   22   51 1
    42   22   52 1
    43   23   24 1
    44   23   53 1
    45   23   54 1
    46   24   25 1
    47   24   55 1
    48   24   56 1
    49   25   33 1
    50   25   26 2
    51   26   31 ar
    52   26   27 ar
    53   27   28 ar
    54   27   57 1
    55   28   29 ar
    56   28   34 1
    57   29   30 ar
    58   29   58 1
    59   30   31 ar
    60   30   59 1
    61   31   32 2
    62   32   33 1
    63   32   65 1
    64   33   60 1
    65   33   61 1
    66   34   62 1
    67   34   63 1
    68   34   64 1
@<TRIPOS>MOLECULE
ZINC12788095
   48    50     0     0     0
SMALL
USER_CHARGES
(E)-3-[5-[(1R,2R)-2-methylcyclopropyl]-2-furyl]-N-[(1S)-1-(3-sulfamoylphenyl)ethyl]prop-2-enamide
@<TRIPOS>ATOM
      1 C1          6.9951  -10.7243   -5.8493 C.3       1 <0>        -0.1255
      2 C2          5.8944   -9.8037   -5.3183 C.3       1 <0>        -0.1347
      3 H1          5.7322   -9.8378   -4.2410 H         1 <0>         0.1083
      4 C3          4.6720   -9.5758   -6.2111 C.3       1 <0>        -0.1633
      5 C4          5.6993   -8.4582   -6.0199 C.3       1 <0>        -0.0920
      6 H2          6.3554   -8.2286   -6.8596 H         1 <0>         0.1391
      7 C5          5.2971   -7.2814   -5.1687 C.2       1 <0>         0.0530
      8 C6          6.0027   -6.1373   -5.0280 C.2       1 <0>        -0.2109
      9 C7          5.2812   -5.3095   -4.1545 C.2       1 <0>        -0.1510
     10 C8          4.1459   -6.0083   -3.7995 C.2       1 <0>        -0.0204
     11 O1          4.1845   -7.2030   -4.4256 O.3       1 <0>        -0.1600
     12 C9          3.1254   -5.5551   -2.9288 C.2       1 <0>         0.0307
     13 C10         3.2153   -4.3274   -2.3595 C.2       1 <0>        -0.2178
     14 C11         2.1951   -3.8744   -1.4890 C.2       1 <0>         0.5567
     15 O2          1.2367   -4.5871   -1.2513 O.2       1 <0>        -0.5408
     16 N1          2.2845   -2.6544   -0.9233 N.am      1 <0>        -0.7246
     17 C12         1.2287   -2.1856   -0.0224 C.3       1 <0>         0.1823
     18 H3          0.2646   -2.5600   -0.3666 H         1 <0>         0.1038
     19 C13         1.4999   -2.7002    1.3927 C.3       1 <0>        -0.1599
     20 C14         1.2082   -0.6788   -0.0136 C.ar      1 <0>        -0.1123
     21 C15         2.3960    0.0288   -0.0217 C.ar      1 <0>        -0.0560
     22 C16         2.3773    1.4107   -0.0141 C.ar      1 <0>        -0.1334
     23 C17         1.1708    2.0856    0.0021 C.ar      1 <0>        -0.0146
     24 C18        -0.0167    1.3783    0.0096 C.ar      1 <0>        -0.6717
     25 C19         0.0021   -0.0041    0.0020 C.ar      1 <0>        -0.0097
     26 S1         -1.5544    2.2385    0.0216 S.o2      1 <0>         2.7012
     27 O3         -1.3035    3.5266   -0.5234 O.2       1 <0>        -0.9606
     28 O4         -2.5194    1.3529   -0.5295 O.2       1 <0>        -0.9572
     29 N2         -1.9742    2.4689    1.6068 N.pl3     1 <0>        -1.2473
     30 H4          7.9581  -10.2190   -5.7760 H         1 <0>         0.0638
     31 H5          7.0194  -11.6400   -5.2584 H         1 <0>         0.0665
     32 H6          6.7919  -10.9698   -6.8917 H         1 <0>         0.0606
     33 H7          3.7053   -9.4599   -5.7212 H         1 <0>         0.1021
     34 H8          4.6525  -10.0818   -7.1763 H         1 <0>         0.1068
     35 H9          6.9460   -5.9041   -5.4994 H         1 <0>         0.1557
     36 H10         5.5600   -4.3196   -3.8246 H         1 <0>         0.1570
     37 H11         2.2754   -6.1871   -2.7180 H         1 <0>         0.1448
     38 H12         4.0653   -3.6954   -2.5703 H         1 <0>         0.1305
     39 H13         3.0480   -2.0868   -1.1126 H         1 <0>         0.4000
     40 H14         0.7143   -2.3514    2.0630 H         1 <0>         0.0700
     41 H15         1.5147   -3.7901    1.3863 H         1 <0>         0.0701
     42 H16         2.4640   -2.3258    1.7369 H         1 <0>         0.0599
     43 H17         3.3385   -0.4984   -0.0343 H         1 <0>         0.1311
     44 H18         3.3052    1.9634   -0.0204 H         1 <0>         0.1381
     45 H19         1.1561    3.1655    0.0081 H         1 <0>         0.1451
     46 H20        -0.9258   -0.5567    0.0079 H         1 <0>         0.1461
     47 H21        -2.4996    3.2434    1.8618 H         1 <0>         0.4228
     48 H22        -1.6947    1.8294    2.2805 H         1 <0>         0.4175
@<TRIPOS>BOND
     1    1    2 1
     2    1   30 1
     3    1   31 1
     4    1   32 1
     5    2    3 1
     6    2    5 1
     7    2    4 1
     8    4    5 1
     9    4   33 1
    10    4   34 1
    11    5    6 1
    12    5    7 1
    13    7   11 1
    14    7    8 2
    15    8    9 1
    16    8   35 1
    17    9   10 2
    18    9   36 1
    19   10   11 1
    20   10   12 1
    21   12   13 2
    22   12   37 1
    23   13   14 1
    24   13   38 1
    25   14   15 2
    26   14   16 am
    27   16   17 1
    28   16   39 1
    29   17   18 1
    30   17   19 1
    31   17   20 1
    32   19   40 1
    33   19   41 1
    34   19   42 1
    35   20   25 ar
    36   20   21 ar
    37   21   22 ar
    38   21   43 1
    39   22   23 ar
    40   22   44 1
    41   23   24 ar
    42   23   45 1
    43   24   25 ar
    44   24   26 1
    45   25   46 1
    46   26   27 2
    47   26   28 2
    48   26   29 1
    49   29   47 1
    50   29   48 1
@<TRIPOS>MOLECULE
ZINC46640661
   38    39     0     0     0
SMALL
USER_CHARGES

@<TRIPOS>ATOM
      1 C1         -0.0187    1.5258    0.0104 C.3       1 <0>        -0.1594
      2 C2          0.0021   -0.0041    0.0020 C.3       1 <0>         0.1861
      3 H1          0.5293   -0.3651    0.8851 H         1 <0>         0.1036
      4 C3          0.7074   -0.4901   -1.2379 C.ar      1 <0>        -0.0599
      5 C4          0.0368   -0.5214   -2.4468 C.ar      1 <0>        -0.1406
      6 C5          0.6810   -0.9667   -3.5860 C.ar      1 <0>        -0.0748
      7 C6          1.9971   -1.3821   -3.5191 C.ar      1 <0>        -0.1878
      8 C7          2.6720   -1.3516   -2.3077 C.ar      1 <0>         0.1124
      9 C8          2.0250   -0.8985   -1.1669 C.ar      1 <0>        -0.1216
     10 O1          3.9665   -1.7597   -2.2393 O.3       1 <0>        -0.3191
     11 C9          4.5705   -2.2079   -3.4543 C.3       1 <0>         0.4120
     12 F1          3.8570   -3.3030   -3.9534 F         1 <0>        -0.1973
     13 F2          4.5521   -1.1718   -4.3942 F         1 <0>        -0.1972
     14 N1         -1.3723   -0.5112    0.0124 N.am      1 <0>        -0.7208
     15 C10        -2.0286   -0.6552    1.1807 C.2       1 <0>         0.5781
     16 O2         -1.4798   -0.3642    2.2265 O.2       1 <0>        -0.5280
     17 C11        -3.4095   -1.1647    1.1912 C.2       1 <0>        -0.2137
     18 C12        -4.1454   -1.3269    2.4217 C.2       1 <0>         0.0541
     19 C13        -5.4007   -1.8017    2.2950 C.2       1 <0>        -0.8044
     20 S1         -5.5733   -2.0218    0.5374 S.3       1 <0>         0.3431
     21 C14        -4.0615   -1.5033    0.0268 C.2       1 <0>        -0.1847
     22 S2         -6.5827   -2.1255    3.5610 S.o2      1 <0>         2.7396
     23 O3         -7.4824   -3.0934    3.0387 O.2       1 <0>        -0.9524
     24 O4         -5.8475   -2.3367    4.7586 O.2       1 <0>        -0.9493
     25 N2         -7.4572   -0.7366    3.7812 N.pl3     1 <0>        -1.2476
     26 H2          1.0039    1.9031    0.0027 H         1 <0>         0.0723
     27 H3         -0.5459    1.8868   -0.8726 H         1 <0>         0.0610
     28 H4         -0.5289    1.8773    0.9072 H         1 <0>         0.0689
     29 H5         -0.9922   -0.1977   -2.5010 H         1 <0>         0.1245
     30 H6          0.1551   -0.9902   -4.5290 H         1 <0>         0.1328
     31 H7          2.4997   -1.7305   -4.4092 H         1 <0>         0.1358
     32 H8          2.5498   -0.8694   -0.2234 H         1 <0>         0.1390
     33 H9          5.6014   -2.5040   -3.2600 H         1 <0>         0.1849
     34 H10        -1.8100   -0.7432   -0.8215 H         1 <0>         0.3980
     35 H11        -3.7176   -1.0838    3.3831 H         1 <0>         0.1693
     36 H12        -3.6852   -1.4493   -0.9840 H         1 <0>         0.2006
     37 H13        -7.2607    0.0499    3.2485 H         1 <0>         0.4180
     38 H14        -8.1658   -0.7095    4.4430 H         1 <0>         0.4244
@<TRIPOS>BOND
     1    1    2 1
     2    1   26 1
     3    1   27 1
     4    1   28 1
     5    2    3 1
     6    2    4 1
     7    2   14 1
     8    4    9 ar
     9    4    5 ar
    10    5    6 ar
    11    5   29 1
    12    6    7 ar
    13    6   30 1
    14    7    8 ar
    15    7   31 1
    16    8    9 ar
    17    8   10 1
    18    9   32 1
    19   10   11 1
    20   11   12 1
    21   11   13 1
    22   11   33 1
    23   14   15 am
    24   14   34 1
    25   15   16 2
    26   15   17 1
    27   17   21 2
    28   17   18 1
    29   18   19 2
    30   18   35 1
    31   19   20 1
    32   19   22 1
    33   20   21 1
    34   21   36 1
    35   22   23 2
    36   22   24 2
    37   22   25 1
    38   25   37 1
    39   25   38 1
@<TRIPOS>MOLECULE
ZINC61881754
   37    37     0     0     0
SMALL
USER_CHARGES

@<TRIPOS>ATOM
      1 C1         -0.3471    1.5798   -0.7978 C.3       1 <0>        -0.1546
      2 C2         -0.0228    0.1280   -0.4401 C.3       1 <0>        -0.0966
      3 C3          0.7661    0.0895    0.8702 C.3       1 <0>        -0.1499
      4 C4         -1.3242   -0.6595   -0.2751 C.3       1 <0>         0.1697
      5 H1         -1.0962   -1.6731    0.0548 H         1 <0>         0.1281
      6 C5         -2.0503   -0.7121   -1.5947 C.2       1 <0>         0.4444
      7 O1         -3.1610   -0.2466   -1.6920 O.2       1 <0>        -0.4792
      8 O2         -1.4630   -1.2761   -2.6618 O.3       1 <0>        -0.3497
      9 C6         -2.2091   -1.2911   -3.8805 C.3       1 <0>         0.0340
     10 N1         -2.1709   -0.0002    0.7222 N.pl3     1 <0>        -1.0868
     11 S1         -2.6027   -0.8046    2.1037 S.o2      1 <0>         2.6862
     12 O3         -1.4059   -1.3375    2.6543 O.2       1 <0>        -0.9359
     13 O4         -3.4539    0.0687    2.8330 O.2       1 <0>        -0.9259
     14 C7         -3.5900   -2.1809    1.6183 C.ar      1 <0>        -0.6041
     15 C8         -3.1293   -3.4684    1.8246 C.ar      1 <0>        -0.0687
     16 C9         -3.9018   -4.5519    1.4452 C.ar      1 <0>         0.0061
     17 C10        -5.1373   -4.3501    0.8583 C.ar      1 <0>        -0.1319
     18 C11        -5.6024   -3.0587    0.6499 C.ar      1 <0>         0.2435
     19 C12        -4.8259   -1.9726    1.0371 C.ar      1 <0>        -0.0802
     20 Br1        -5.4580   -0.2116    0.7627 Br        1 <0>        -0.0032
     21 N2         -6.8503   -2.8512    0.0567 N.pl3     1 <0>        -0.8602
     22 Cl1        -3.3189   -6.1662    1.7058 Cl        1 <0>        -0.0434
     23 H2          0.5800    2.1408   -0.9154 H         1 <0>         0.0689
     24 H3         -0.9092    1.6071   -1.7313 H         1 <0>         0.0532
     25 H4         -0.9432    2.0257   -0.0016 H         1 <0>         0.0615
     26 H5          0.5732   -0.3180   -1.2363 H         1 <0>         0.0995
     27 H6          0.2038    0.6059    1.6482 H         1 <0>         0.0593
     28 H7          0.9284   -0.9468    1.1663 H         1 <0>         0.0691
     29 H8          1.7282    0.5822    0.7296 H         1 <0>         0.0650
     30 H9         -2.4383   -0.2681   -4.1788 H         1 <0>         0.0620
     31 H10        -1.6209   -1.7741   -4.6607 H         1 <0>         0.1038
     32 H11        -3.1374   -1.8427   -3.7314 H         1 <0>         0.0597
     33 H12        -2.4786    0.9076    0.5732 H         1 <0>         0.4289
     34 H13        -2.1644   -3.6285    2.2825 H         1 <0>         0.1616
     35 H14        -5.7398   -5.1961    0.5620 H         1 <0>         0.1500
     36 H15        -7.3927   -3.6099   -0.2100 H         1 <0>         0.4078
     37 H16        -7.1742   -1.9485   -0.0884 H         1 <0>         0.4082
@<TRIPOS>BOND
     1    1    2 1
     2    1   23 1
     3    1   24 1
     4    1   25 1
     5    2    3 1
     6    2    4 1
     7    2   26 1
     8    3   27 1
     9    3   28 1
    10    3   29 1
    11    4    5 1
    12    4    6 1
    13    4   10 1
    14    6    7 2
    15    6    8 1
    16    8    9 1
    17    9   30 1
    18    9   31 1
    19    9   32 1
    20   10   11 1
    21   10   33 1
    22   11   12 2
    23   11   13 2
    24   11   14 1
    25   14   19 ar
    26   14   15 ar
    27   15   16 ar
    28   15   34 1
    29   16   17 ar
    30   16   22 1
    31   17   18 ar
    32   17   35 1
    33   18   19 ar
    34   18   21 1
    35   19   20 1
    36   21   36 1
    37   21   37 1
@<TRIPOS>MOLECULE
ZINC67000368
   54    56     0     0     0
SMALL
USER_CHARGES

@<TRIPOS>ATOM
      1 C1          2.2770    1.0221    0.8643 C.3       1 <0>        -0.1535
      2 C2          1.7118   -0.3813    0.6365 C.3       1 <0>         0.0560
      3 O1          1.8128   -0.7164   -0.7490 O.3       1 <0>        -0.3160
      4 C3          1.3515   -1.9393   -1.1234 C.ar      1 <0>         0.1193
      5 C4          0.8082   -2.7956   -0.1794 C.ar      1 <0>        -0.1943
      6 C5          0.3391   -4.0385   -0.5618 C.ar      1 <0>        -0.0530
      7 C6          0.4101   -4.4316   -1.8859 C.ar      1 <0>        -0.1399
      8 C7          0.9503   -3.5840   -2.8339 C.ar      1 <0>        -0.0760
      9 C8          1.4186   -2.3324   -2.4589 C.ar      1 <0>         0.0985
     10 N1          1.9612   -1.4703   -3.4175 N.am      1 <0>        -0.6308
     11 C9          2.6656   -1.9705   -4.4519 C.2       1 <0>         0.5076
     12 O2          2.7614   -3.1719   -4.5966 O.2       1 <0>        -0.5020
     13 C10         3.3284   -1.0466   -5.4200 C.2       1 <0>         0.5107
     14 O3          3.2327    0.1545   -5.2754 O.2       1 <0>        -0.5148
     15 N2          4.0329   -1.5468   -6.4544 N.am      1 <0>        -0.6904
     16 C11         4.6832   -0.6405   -7.4042 C.3       1 <0>         0.0922
     17 C12         5.3058   -1.4539   -8.5407 C.3       1 <0>         0.1712
     18 C13         6.3176   -2.4392   -7.9592 C.3       1 <0>        -0.1100
     19 C14         7.0838   -3.0865   -9.1189 C.3       1 <0>        -0.1171
     20 C15         7.9903   -2.0296   -9.7466 C.3       1 <0>        -0.0871
     21 C16         7.2069   -0.7840  -10.0689 C.ar      1 <0>        -0.0517
     22 C17         5.9759   -0.5178   -9.5122 C.ar      1 <0>        -0.1124
     23 C18         5.3085    0.6531   -9.8470 C.ar      1 <0>        -0.1140
     24 C19         5.8672    1.5493  -10.7350 C.ar      1 <0>        -0.1226
     25 C20         7.1010    1.2802  -11.2967 C.ar      1 <0>        -0.1076
     26 C21         7.7666    0.1183  -10.9639 C.ar      1 <0>        -0.1240
     27 O4          4.2782   -2.1798   -9.2184 O.3       1 <0>        -0.5434
     28 C22        -0.2509   -4.9680    0.4672 C.3       1 <0>        -0.1168
     29 H1          3.3234    1.0462    0.5600 H         1 <0>         0.0669
     30 H2          1.7104    1.7423    0.2740 H         1 <0>         0.0675
     31 H3          2.2000    1.2777    1.9211 H         1 <0>         0.0802
     32 H4          2.2784   -1.1014    1.2268 H         1 <0>         0.0634
     33 H5          0.6654   -0.4053    0.9408 H         1 <0>         0.0639
     34 H6          0.7514   -2.4921    0.8555 H         1 <0>         0.1335
     35 H7          0.0425   -5.4038   -2.1795 H         1 <0>         0.1304
     36 H8          1.0044   -3.8937   -3.8672 H         1 <0>         0.1477
     37 H9          1.8304   -0.5125   -3.3378 H         1 <0>         0.4253
     38 H10         4.1094   -2.5068   -6.5701 H         1 <0>         0.4177
     39 H11         3.9441    0.0485   -7.8131 H         1 <0>         0.0830
     40 H12         5.4624   -0.0758   -6.8923 H         1 <0>         0.0853
     41 H13         7.0142   -1.9094   -7.3094 H         1 <0>         0.0826
     42 H14         5.7957   -3.2080   -7.3895 H         1 <0>         0.0785
     43 H15         7.6879   -3.9127   -8.7440 H         1 <0>         0.0728
     44 H16         6.3789   -3.4551   -9.8642 H         1 <0>         0.0773
     45 H17         8.7895   -1.7810   -9.0483 H         1 <0>         0.0794
     46 H18         8.4256   -2.4277  -10.6631 H         1 <0>         0.0788
     47 H19         4.3441    0.8638   -9.4089 H         1 <0>         0.1229
     48 H20         5.3420    2.4577  -10.9905 H         1 <0>         0.1250
     49 H21         7.5425    1.9768  -11.9941 H         1 <0>         0.1248
     50 H22         8.7309   -0.0911  -11.4030 H         1 <0>         0.1242
     51 H23         3.5926   -1.6200   -9.6078 H         1 <0>         0.3793
     52 H24        -1.3232   -4.7891    0.5462 H         1 <0>         0.0742
     53 H25        -0.0761   -6.0010    0.1665 H         1 <0>         0.0706
     54 H26         0.2198   -4.7863    1.4334 H         1 <0>         0.0670
@<TRIPOS>BOND
     1    1    2 1
     2    1   29 1
     3    1   30 1
     4    1   31 1
     5    2    3 1
     6    2   32 1
     7    2   33 1
     8    3    4 1
     9    4    9 ar
    10    4    5 ar
    11    5    6 ar
    12    5   34 1
    13    6    7 ar
    14    6   28 1
    15    7    8 ar
    16    7   35 1
    17    8    9 ar
    18    8   36 1
    19    9   10 1
    20   10   11 am
    21   10   37 1
    22   11   12 2
    23   11   13 1
    24   13   14 2
    25   13   15 am
    26   15   16 1
    27   15   38 1
    28   16   17 1
    29   16   39 1
    30   16   40 1
    31   17   22 1
    32   17   18 1
    33   17   27 1
    34   18   19 1
    35   18   41 1
    36   18   42 1
    37   19   20 1
    38   19   43 1
    39   19   44 1
    40   20   21 1
    41   20   45 1
    42   20   46 1
    43   21   26 ar
    44   21   22 ar
    45   22   23 ar
    46   23   24 ar
    47   23   47 1
    48   24   25 ar
    49   24   48 1
    50   25   26 ar
    51   25   49 1
    52   26   50 1
    53   27   51 1
    54   28   52 1
    55   28   53 1
    56   28   54 1
@<TRIPOS>MOLECULE
ZINC67474125
   35    36     0     0     0
SMALL
USER_CHARGES

@<TRIPOS>ATOM
      1 C1         -0.0167    1.3780    0.0096 C.ar      1 <0>        -0.0602
      2 C2          1.1695    2.0870    0.0021 C.ar      1 <0>        -0.1955
      3 C3          2.3806    1.4115   -0.0131 C.ar      1 <0>         0.1502
      4 C4          2.3986    0.0234   -0.0208 C.ar      1 <0>        -0.0693
      5 C5          1.2086   -0.6819   -0.0132 C.ar      1 <0>         0.0052
      6 C6          0.0021   -0.0041    0.0020 C.ar      1 <0>        -0.1355
      7 Cl1         1.2287   -2.4178   -0.0233 Cl        1 <0>        -0.0360
      8 Cl2         3.9124   -0.8262   -0.0404 Cl        1 <0>        -0.0329
      9 O1          3.5481    2.1074   -0.0210 O.3       1 <0>        -0.2986
     10 C7          3.4536    3.5333   -0.0129 C.3       1 <0>         0.0428
     11 C8          4.8591    4.1377   -0.0235 C.3       1 <0>         0.1246
     12 N1          5.5261    3.8007   -1.2836 N.am      1 <0>        -0.7240
     13 C9          6.7823    4.2296   -1.5169 C.2       1 <0>         0.5775
     14 O2          7.3622    4.8966   -0.6812 O.2       1 <0>        -0.5300
     15 C10         7.4524    3.8910   -2.7829 C.2       1 <0>        -0.2145
     16 C11         8.7983    4.3277   -3.0654 C.2       1 <0>         0.0541
     17 C12         9.2976    3.9509   -4.2595 C.2       1 <0>        -0.8048
     18 S1          7.9617    3.0221   -4.9806 S.3       1 <0>         0.3431
     19 C13         6.8264    3.1379   -3.7506 C.2       1 <0>        -0.1827
     20 S2         10.8860    4.2944   -4.9406 S.o2      1 <0>         2.7398
     21 O3         10.7523    4.1973   -6.3520 O.2       1 <0>        -0.9525
     22 O4         11.3570    5.4716   -4.2992 O.2       1 <0>        -0.9496
     23 N2         11.8943    3.0660   -4.4751 N.pl3     1 <0>        -1.2477
     24 H1         -0.9595    1.9044    0.0260 H         1 <0>         0.1440
     25 H2          1.1534    3.1669    0.0077 H         1 <0>         0.1437
     26 H3         -0.9263   -0.5559    0.0083 H         1 <0>         0.1460
     27 H4          2.9082    3.8663   -0.8959 H         1 <0>         0.0762
     28 H5          2.9255    3.8573    0.8840 H         1 <0>         0.0888
     29 H6          4.7894    5.2212    0.0722 H         1 <0>         0.0975
     30 H7          5.4339    3.7354    0.8107 H         1 <0>         0.0862
     31 H8          5.0636    3.2688   -1.9500 H         1 <0>         0.4017
     32 H9          9.3692    4.9191   -2.3649 H         1 <0>         0.1690
     33 H10         5.8313    2.7189   -3.7247 H         1 <0>         0.2009
     34 H11        11.5553    2.3420   -3.9258 H         1 <0>         0.4181
     35 H12        12.8240    3.0705   -4.7517 H         1 <0>         0.4244
@<TRIPOS>BOND
     1    1    6 ar
     2    1    2 ar
     3    1   24 1
     4    2    3 ar
     5    2   25 1
     6    3    4 ar
     7    3    9 1
     8    4    5 ar
     9    4    8 1
    10    5    6 ar
    11    5    7 1
    12    6   26 1
    13    9   10 1
    14   10   11 1
    15   10   27 1
    16   10   28 1
    17   11   12 1
    18   11   29 1
    19   11   30 1
    20   12   13 am
    21   12   31 1
    22   13   14 2
    23   13   15 1
    24   15   19 2
    25   15   16 1
    26   16   17 2
    27   16   32 1
    28   17   18 1
    29   17   20 1
    30   18   19 1
    31   19   33 1
    32   20   21 2
    33   20   22 2
    34   20   23 1
    35   23   34 1
    36   23   35 1
@<TRIPOS>MOLECULE
ZINC23935731
   50    52     0     0     0
SMALL
USER_CHARGES
6-methyl-2-(4-phenylsulfanylbutanoylamino)-5,7-dihydro-4H-thieno[5,4-c]pyridine-3-carboxamide
@<TRIPOS>ATOM
      1 C1          1.4302    3.4314   -0.1621 C.3       1 <0>        -0.0453
      2 N1          1.3767    1.9723   -0.0005 N.4       1 <0>        -0.4019
      3 C2          2.1512    1.2974   -1.0509 C.3       1 <0>        -0.0007
      4 C3          2.3999   -0.1637   -0.6655 C.3       1 <0>        -0.0895
      5 C4          1.0616   -0.7911   -0.2931 C.2       1 <0>        -0.0375
      6 C5          0.0021   -0.0041    0.0020 C.2       1 <0>        -0.3221
      7 S1         -1.3109   -1.1324    0.3640 S.3       1 <0>         0.3165
      8 C6         -0.4671   -2.6280    0.1295 C.2       1 <0>         0.1123
      9 C7          0.8118   -2.2183   -0.2243 C.2       1 <0>        -0.2430
     10 C8          1.8692   -3.1912   -0.5166 C.2       1 <0>         0.5773
     11 O1          2.5887   -3.5951    0.3781 O.2       1 <0>        -0.5336
     12 N2          2.0443   -3.6381   -1.7759 N.am      1 <0>        -0.8693
     13 N3         -0.9513   -3.9204    0.2635 N.am      1 <0>        -0.6357
     14 C9         -2.2352   -4.1255    0.6186 C.2       1 <0>         0.5167
     15 O2         -2.9669   -3.1797    0.8210 O.2       1 <0>        -0.4933
     16 C10        -2.7615   -5.5301    0.7642 C.3       1 <0>        -0.1323
     17 C11        -4.2354   -5.4827    1.1719 C.3       1 <0>        -0.0922
     18 C12        -4.7697   -6.9088    1.3197 C.3       1 <0>        -0.1143
     19 S2         -6.5172   -6.8526    1.8032 S.3       1 <0>        -0.1097
     20 C13        -6.9788   -8.5483    1.9309 C.ar      1 <0>        -0.0866
     21 C14        -6.0475   -9.5455    1.6673 C.ar      1 <0>        -0.1352
     22 C15        -6.4113  -10.8733    1.7739 C.ar      1 <0>        -0.1006
     23 C16        -7.7037  -11.2113    2.1319 C.ar      1 <0>        -0.1216
     24 C17        -8.6349  -10.2216    2.3890 C.ar      1 <0>        -0.0986
     25 C18        -8.2767   -8.8917    2.2899 C.ar      1 <0>        -0.0993
     26 C19        -0.0182    1.4924    0.0102 C.3       1 <0>         0.1080
     27 H1          2.4795    3.7615   -0.1667 H         1 <0>         0.1276
     28 H2          0.8981    3.9124    0.6719 H         1 <0>         0.1277
     29 H3          0.9531    3.7128   -1.1125 H         1 <0>         0.1211
     30 H4          1.5919    1.3307   -1.9975 H         1 <0>         0.1302
     31 H5          3.1179    1.8066   -1.1781 H         1 <0>         0.1387
     32 H6          2.8438   -0.6975   -1.5187 H         1 <0>         0.1205
     33 H7          3.0886   -0.2048    0.1912 H         1 <0>         0.1082
     34 H8          2.8375   -4.3680   -1.9952 H         1 <0>         0.4316
     35 H9          1.3940   -3.2730   -2.5845 H         1 <0>         0.4232
     36 H10        -0.2876   -4.7782    0.0800 H         1 <0>         0.4551
     37 H11        -2.6632   -6.0597   -0.1949 H         1 <0>         0.1113
     38 H12        -2.1843   -6.0598    1.5364 H         1 <0>         0.1119
     39 H13        -4.3337   -4.9530    2.1310 H         1 <0>         0.0872
     40 H14        -4.8126   -4.9530    0.3997 H         1 <0>         0.0872
     41 H15        -4.6714   -7.4384    0.3606 H         1 <0>         0.0919
     42 H16        -4.1924   -7.4385    2.0918 H         1 <0>         0.0921
     43 H17        -5.0392   -9.2823    1.3836 H         1 <0>         0.1208
     44 H18        -5.6868  -11.6488    1.5736 H         1 <0>         0.1267
     45 H19        -7.9865  -12.2506    2.2106 H         1 <0>         0.1276
     46 H20        -9.6433  -10.4892    2.6680 H         1 <0>         0.1307
     47 H21        -9.0044   -8.1194    2.4908 H         1 <0>         0.1288
     48 H22        -0.5250    1.8587    0.9152 H         1 <0>         0.1430
     49 H23        -0.5421    1.8683   -0.8810 H         1 <0>         0.1392
     50 H24         1.8343    1.7267    0.9692 H         1 <0>         0.4491
@<TRIPOS>BOND
     1    1    2 1
     2    1   27 1
     3    1   28 1
     4    1   29 1
     5    2   26 1
     6    2    3 1
     7    2   50 1
     8    3    4 1
     9    3   30 1
    10    3   31 1
    11    4    5 1
    12    4   32 1
    13    4   33 1
    14    5    9 1
    15    5    6 2
    16    6    7 1
    17    6   26 1
    18    7    8 1
    19    8    9 2
    20    8   13 1
    21    9   10 1
    22   10   11 2
    23   10   12 am
    24   12   34 1
    25   12   35 1
    26   13   14 am
    27   13   36 1
    28   14   15 2
    29   14   16 1
    30   16   17 1
    31   16   37 1
    32   16   38 1
    33   17   18 1
    34   17   39 1
    35   17   40 1
    36   18   19 1
    37   18   41 1
    38   18   42 1
    39   19   20 1
    40   20   25 ar
    41   20   21 ar
    42   21   22 ar
    43   21   43 1
    44   22   23 ar
    45   22   44 1
    46   23   24 ar
    47   23   45 1
    48   24   25 ar
    49   24   46 1
    50   25   47 1
    51   26   48 1
    52   26   49 1
@<TRIPOS>MOLECULE
ZINC39747852
   42    45     0     0     0
SMALL
USER_CHARGES

@<TRIPOS>ATOM
      1 C1          1.0686   -2.1040    3.4215 C.ar      1 <0>        -0.1413
      2 C2          2.3754   -1.9855    3.8994 C.ar      1 <0>         0.0474
      3 C3          3.3535   -2.8482    3.5290 C.ar      1 <0>        -0.2024
      4 C4          3.0578   -3.9069    2.6319 C.ar      1 <0>         0.3190
      5 N1          3.8165   -4.8602    2.1273 N.pl3     1 <0>        -0.5892
      6 C5          3.0085   -5.7047    1.2423 C.3       1 <0>         0.0863
      7 C6          1.6115   -5.1251    1.2722 C.2       1 <0>         0.1338
      8 C7          1.6788   -4.0275    2.1316 C.ar      1 <0>        -0.1268
      9 C8          0.7133   -3.0922    2.5605 C.ar      1 <0>        -0.0184
     10 C9          0.4849   -5.5927    0.5812 C.2       1 <0>         0.2061
     11 N2         -0.6958   -5.0372    0.6488 N.2       1 <0>        -0.1523
     12 N3         -1.6058   -5.7386   -0.1555 N.pl3     1 <0>        -0.5967
     13 C10        -0.8336   -6.8385   -0.7582 C.3       1 <0>         0.3056
     14 H1         -1.2445   -7.8019   -0.4564 H         1 <0>         0.1644
     15 O1          0.4936   -6.6710   -0.2402 O.3       1 <0>        -0.2969
     16 S1         -0.8285   -6.6922   -2.5663 S.3       1 <0>        -0.1694
     17 C11        -0.0543   -5.0808   -2.8740 C.3       1 <0>        -0.0411
     18 H2         -0.5945   -4.3079   -2.3274 H         1 <0>         0.1296
     19 C12        -0.0977   -4.7762   -4.3493 C.ar      1 <0>        -0.0997
     20 C13         0.5858   -5.5815   -5.2412 C.ar      1 <0>        -0.0701
     21 C14         0.5464   -5.3034   -6.5943 C.ar      1 <0>        -0.1480
     22 C15        -0.1780   -4.2178   -7.0566 C.ar      1 <0>         0.1241
     23 C16        -0.8622   -3.4120   -6.1624 C.ar      1 <0>        -0.1483
     24 C17        -0.8256   -3.6951   -4.8102 C.ar      1 <0>        -0.0577
     25 F1         -0.2169   -3.9447   -8.3792 F         1 <0>        -0.1281
     26 C18         1.3791   -5.1155   -2.4102 C.2       1 <0>         0.5304
     27 O2          1.8954   -4.1144   -1.9606 O.2       1 <0>        -0.5290
     28 N4          2.0874   -6.2590   -2.4951 N.am      1 <0>        -0.8381
     29 H3          0.3217   -1.3955    3.7479 H         1 <0>         0.1579
     30 H4          2.6137   -1.1839    4.5829 H         1 <0>         0.1629
     31 H5          4.3550   -2.7298    3.9155 H         1 <0>         0.1631
     32 H6          3.4061   -5.6736    0.2279 H         1 <0>         0.1735
     33 H7          2.9971   -6.7307    1.6102 H         1 <0>         0.1791
     34 H8         -0.3044   -3.1623    2.2058 H         1 <0>         0.1607
     35 H9         -2.5462   -5.5409   -0.2873 H         1 <0>         0.4720
     36 H10         1.1512   -6.4280   -4.8803 H         1 <0>         0.1340
     37 H11         1.0808   -5.9324   -7.2909 H         1 <0>         0.1462
     38 H12        -1.4274   -2.5647   -6.5218 H         1 <0>         0.1471
     39 H13        -1.3629   -3.0694   -4.1129 H         1 <0>         0.1382
     40 H14         1.6997   -7.0391   -2.9216 H         1 <0>         0.4124
     41 H15         2.9849   -6.3018   -2.1296 H         1 <0>         0.4031
     42 H16         4.7608   -4.9830    2.3122 H         1 <0>         0.4566
@<TRIPOS>BOND
     1    1    9 ar
     2    1    2 ar
     3    1   29 1
     4    2    3 ar
     5    2   30 1
     6    3    4 ar
     7    3   31 1
     8    4    8 ar
     9    4    5 2
    10    5    6 1
    11    5   42 1
    12    6    7 1
    13    6   32 1
    14    6   33 1
    15    7    8 2
    16    7   10 1
    17    8    9 ar
    18    9   34 1
    19   10   15 1
    20   10   11 2
    21   11   12 1
    22   12   13 1
    23   12   35 1
    24   13   14 1
    25   13   15 1
    26   13   16 1
    27   16   17 1
    28   17   18 1
    29   17   19 1
    30   17   26 1
    31   19   24 ar
    32   19   20 ar
    33   20   21 ar
    34   20   36 1
    35   21   22 ar
    36   21   37 1
    37   22   23 ar
    38   22   25 1
    39   23   24 ar
    40   23   38 1
    41   24   39 1
    42   26   27 2
    43   26   28 am
    44   28   40 1
    45   28   41 1
@<TRIPOS>MOLECULE
ZINC61594343
   38    39     0     0     0
SMALL
USER_CHARGES

@<TRIPOS>ATOM
      1 C1         -0.2770   -0.8903    1.3372 C.3       1 <0>        -0.1740
      2 C2          0.9233   -0.8437    2.2849 C.3       1 <0>         0.1169
      3 N1          1.8459   -1.9339    1.9584 N.am      1 <0>        -0.5287
      4 C3          1.8128   -3.1776    2.4770 C.2       1 <0>         0.6541
      5 O1          1.0140   -3.5944    3.2971 O.2       1 <0>        -0.5314
      6 N2          2.8245   -3.8771    1.9229 N.am      1 <0>        -0.5369
      7 H1          3.0491   -4.8032    2.1042 H         1 <0>         0.4606
      8 N3          3.4912   -3.0197    1.0368 N.2       1 <0>        -0.2709
      9 C4          2.8909   -1.8649    1.0651 C.2       1 <0>         0.2419
     10 S1          3.3437   -0.4480    0.1206 S.3       1 <0>         0.0880
     11 C5          4.8743   -0.9480   -0.7145 C.3       1 <0>        -0.0787
     12 H2          4.7128   -1.8924   -1.2343 H         1 <0>         0.1388
     13 C6          5.9709   -1.1170    0.3053 C.ar      1 <0>        -0.1379
     14 C7          6.3499   -0.0483    1.0960 C.ar      1 <0>        -0.0963
     15 C8          7.3553   -0.2030    2.0318 C.ar      1 <0>        -0.0859
     16 C9          7.9821   -1.4274    2.1771 C.ar      1 <0>        -0.0698
     17 C10         7.6025   -2.4965    1.3858 C.ar      1 <0>        -0.0860
     18 C11         6.5935   -2.3423    0.4539 C.ar      1 <0>        -0.0786
     19 Br1         9.3581   -1.6395    3.4569 Br        1 <0>        -0.0209
     20 C12         5.2789    0.1275   -1.7248 C.3       1 <0>         0.0520
     21 H3          5.3950    1.0823   -1.2121 H         1 <0>         0.1551
     22 C13         4.1951    0.2530   -2.7975 C.3       1 <0>        -0.1914
     23 N4          6.5513   -0.2474   -2.3559 N.4       1 <0>        -0.6313
     24 H4          0.0674   -0.7791    0.3090 H         1 <0>         0.0625
     25 H5         -0.7900   -1.8456    1.4473 H         1 <0>         0.0681
     26 H6         -0.9634   -0.0791    1.5802 H         1 <0>         0.0872
     27 H7          1.4364    0.1117    2.1748 H         1 <0>         0.0966
     28 H8          0.5789   -0.9548    3.3131 H         1 <0>         0.1067
     29 H9          5.8606    0.9078    0.9822 H         1 <0>         0.1415
     30 H10         7.6515    0.6322    2.6492 H         1 <0>         0.1445
     31 H11         8.0917   -3.4527    1.4989 H         1 <0>         0.1432
     32 H12         6.2942   -3.1781   -0.1612 H         1 <0>         0.1406
     33 H13         3.2352    0.4554   -2.3222 H         1 <0>         0.1163
     34 H14         4.4456    1.0708   -3.4731 H         1 <0>         0.0963
     35 H15         4.1323   -0.6778   -3.3612 H         1 <0>         0.0910
     36 H16         6.4439   -1.1313   -2.8305 H         1 <0>         0.4361
     37 H17         6.8181    0.4619   -3.0222 H         1 <0>         0.4434
     38 H18         7.2661   -0.3302   -1.6485 H         1 <0>         0.4372
@<TRIPOS>BOND
     1    1    2 1
     2    1   24 1
     3    1   25 1
     4    1   26 1
     5    2    3 1
     6    2   27 1
     7    2   28 1
     8    3    9 1
     9    3    4 am
    10    4    5 2
    11    4    6 am
    12    6    7 1
    13    6    8 1
    14    8    9 2
    15    9   10 1
    16   10   11 1
    17   11   12 1
    18   11   13 1
    19   11   20 1
    20   13   18 ar
    21   13   14 ar
    22   14   15 ar
    23   14   29 1
    24   15   16 ar
    25   15   30 1
    26   16   17 ar
    27   16   19 1
    28   17   18 ar
    29   17   31 1
    30   18   32 1
    31   20   21 1
    32   20   22 1
    33   20   23 1
    34   22   33 1
    35   22   34 1
    36   22   35 1
    37   23   36 1
    38   23   37 1
    39   23   38 1
@<TRIPOS>MOLECULE
ZINC62729766
   45    45     0     0     0
SMALL
USER_CHARGES

@<TRIPOS>ATOM
      1 C1         -0.0187    1.5258    0.0104 C.3       1 <0>        -0.1721
      2 C2          0.0021   -0.0041    0.0020 C.3       1 <0>         0.0769
      3 H1          0.5293   -0.3651    0.8851 H         1 <0>         0.0885
      4 C3         -1.4117   -0.5257    0.0127 C.2       1 <0>         0.5181
      5 O1         -1.8361   -1.1469   -0.9385 O.2       1 <0>        -0.5059
      6 N1         -2.2045   -0.3018    1.0794 N.am      1 <0>        -0.8494
      7 O2          0.6709   -0.4649   -1.1737 O.3       1 <0>        -0.2821
      8 C4          2.0151   -0.6530   -1.0858 C.ar      1 <0>         0.1250
      9 C5          2.8862    0.3920   -1.3784 C.ar      1 <0>         0.1309
     10 C6          4.2546    0.1956   -1.2875 C.ar      1 <0>        -0.1670
     11 C7          4.7527   -1.0369   -0.9066 C.ar      1 <0>        -0.1257
     12 C8          3.8882   -2.0754   -0.6162 C.ar      1 <0>        -0.0911
     13 C9          2.5203   -1.8843   -0.6990 C.ar      1 <0>        -0.0812
     14 Br1         1.3406   -3.3053   -0.2927 Br        1 <0>         0.0093
     15 C10         6.2415   -1.2483   -0.8083 C.3       1 <0>         0.0477
     16 N2          6.6942   -0.9196    0.5500 N.4       1 <0>        -0.5108
     17 C11         8.1455   -1.1257    0.6458 C.3       1 <0>        -0.0090
     18 C12         8.6170   -0.7833    2.0605 C.3       1 <0>        -0.1188
     19 C13        10.1042   -1.1159    2.1969 C.3       1 <0>        -0.1530
     20 C14         8.4018    0.7086    2.3227 C.3       1 <0>        -0.1714
     21 O3          2.3952    1.6036   -1.7534 O.3       1 <0>        -0.2884
     22 C15         3.3480    2.6297   -2.0385 C.3       1 <0>         0.0178
     23 H2          1.0039    1.9031    0.0027 H         1 <0>         0.0760
     24 H3         -0.5459    1.8868   -0.8726 H         1 <0>         0.0798
     25 H4         -0.5289    1.8773    0.9072 H         1 <0>         0.0783
     26 H5         -1.8651    0.1950    1.8402 H         1 <0>         0.4017
     27 H6         -3.1146   -0.6376    1.0863 H         1 <0>         0.4119
     28 H7          4.9325    1.0051   -1.5145 H         1 <0>         0.1490
     29 H8          4.2811   -3.0367   -0.3197 H         1 <0>         0.1496
     30 H9          6.4758   -2.2901   -1.0272 H         1 <0>         0.1454
     31 H10         6.7482   -0.6033   -1.5262 H         1 <0>         0.1428
     32 H11         6.4773    0.0448    0.7527 H         1 <0>         0.4254
     33 H12         8.3798   -2.1675    0.4269 H         1 <0>         0.1357
     34 H13         8.6522   -0.4807   -0.0721 H         1 <0>         0.1339
     35 H14         8.0466   -1.3654    2.7844 H         1 <0>         0.0944
     36 H15        10.6745   -0.5338    1.4731 H         1 <0>         0.0684
     37 H16        10.4400   -0.8720    3.2048 H         1 <0>         0.0781
     38 H17        10.2574   -2.1787    2.0101 H         1 <0>         0.0687
     39 H18         8.9722    1.2907    1.5989 H         1 <0>         0.0731
     40 H19         7.3423    0.9455    2.2255 H         1 <0>         0.0507
     41 H20         8.7377    0.9525    3.3306 H         1 <0>         0.0839
     42 H21         3.9933    2.3093   -2.8564 H         1 <0>         0.0631
     43 H22         2.8247    3.5421   -2.3245 H         1 <0>         0.1146
     44 H23         3.9528    2.8204   -1.1519 H         1 <0>         0.0588
     45 H24         6.2251   -1.5166    1.2146 H         1 <0>         0.4286
@<TRIPOS>BOND
     1    1    2 1
     2    1   23 1
     3    1   24 1
     4    1   25 1
     5    2    3 1
     6    2    4 1
     7    2    7 1
     8    4    5 2
     9    4    6 am
    10    6   26 1
    11    6   27 1
    12    7    8 1
    13    8   13 ar
    14    8    9 ar
    15    9   10 ar
    16    9   21 1
    17   10   11 ar
    18   10   28 1
    19   11   12 ar
    20   11   15 1
    21   12   13 ar
    22   12   29 1
    23   13   14 1
    24   15   16 1
    25   15   30 1
    26   15   31 1
    27   16   17 1
    28   16   32 1
    29   16   45 1
    30   17   18 1
    31   17   33 1
    32   17   34 1
    33   18   19 1
    34   18   20 1
    35   18   35 1
    36   19   36 1
    37   19   37 1
    38   19   38 1
    39   20   39 1
    40   20   40 1
    41   20   41 1
    42   21   22 1
    43   22   42 1
    44   22   43 1
    45   22   44 1
@<TRIPOS>MOLECULE
ZINC67400708
   58    59     0     0     0
SMALL
USER_CHARGES

@<TRIPOS>ATOM
      1 C1         -0.5549    1.4146    0.1362 C.3       1 <0>        -0.1807
      2 C2          0.0021   -0.0041    0.0020 C.3       1 <0>         0.0070
      3 H1          0.7277   -0.0342   -0.8108 H         1 <0>         0.1616
      4 C3          0.6740   -0.4038    1.2903 C.2       1 <0>         0.5135
      5 O1          0.0420   -0.9780    2.1509 O.2       1 <0>        -0.4460
      6 N1          1.9777   -0.1230    1.4858 N.am      1 <0>        -0.6780
      7 C4          2.5786   -0.4806    2.6379 C.2       1 <0>         0.6926
      8 O2          1.9450   -1.0562    3.5007 O.2       1 <0>        -0.5115
      9 N2          3.8822   -0.1998    2.8334 N.am      1 <0>        -0.7201
     10 C5          4.5355   -0.5884    4.0858 C.3       1 <0>         0.1829
     11 C6          4.4554   -2.1072    4.2528 C.3       1 <0>        -0.1678
     12 C7          6.0026   -0.1557    4.0514 C.3       1 <0>        -0.1585
     13 C8          3.8306    0.0918    5.2611 C.3       1 <0>        -0.1685
     14 N3         -1.0961   -0.9359   -0.2871 N.4       1 <0>        -0.3716
     15 C9         -1.7472   -0.5476   -1.5440 C.3       1 <0>        -0.0105
     16 C10        -2.9424   -1.4657   -1.8086 C.3       1 <0>        -0.1380
     17 C11        -2.4542   -2.9135   -1.9110 C.3       1 <0>        -0.1295
     18 C12        -1.7117   -3.2837   -0.6238 C.3       1 <0>        -0.1494
     19 C13        -0.5621   -2.2982   -0.4031 C.3       1 <0>        -0.0115
     20 C14        -3.6530   -3.8459   -2.0963 C.3       1 <0>         0.1577
     21 H2         -4.1847   -3.5770   -3.0091 H         1 <0>         0.1215
     22 C15        -3.1709   -5.2701   -2.1969 C.ar      1 <0>        -0.1267
     23 C16        -2.9501   -6.0076   -1.0486 C.ar      1 <0>        -0.1046
     24 C17        -2.5080   -7.3138   -1.1402 C.ar      1 <0>        -0.1049
     25 C18        -2.2863   -7.8834   -2.3814 C.ar      1 <0>        -0.0286
     26 C19        -2.5074   -7.1449   -3.5303 C.ar      1 <0>        -0.1039
     27 C20        -2.9550   -5.8405   -3.4375 C.ar      1 <0>        -0.0939
     28 Cl1        -1.7304   -9.5239   -2.4973 Cl        1 <0>        -0.0546
     29 O3         -4.5328   -3.7187   -0.9775 O.3       1 <0>        -0.5446
     30 H3          0.2600    2.1061    0.3507 H         1 <0>         0.1127
     31 H4         -1.0409    1.7038   -0.7956 H         1 <0>         0.1032
     32 H5         -1.2805    1.4447    0.9490 H         1 <0>         0.0935
     33 H6          2.4834    0.3364    0.7972 H         1 <0>         0.4165
     34 H7          4.3879    0.2596    2.1449 H         1 <0>         0.4007
     35 H8          4.9576   -2.5917    3.4155 H         1 <0>         0.0560
     36 H9          4.9415   -2.3963    5.1846 H         1 <0>         0.0723
     37 H10         3.4102   -2.4154    4.2773 H         1 <0>         0.0772
     38 H11         6.0596    0.9262    3.9324 H         1 <0>         0.0657
     39 H12         6.4886   -0.4449    4.9832 H         1 <0>         0.0831
     40 H13         6.5048   -0.6403    3.2141 H         1 <0>         0.0653
     41 H14         2.7854   -0.2165    5.2856 H         1 <0>         0.0776
     42 H15         4.3166   -0.1974    6.1929 H         1 <0>         0.0722
     43 H16         3.8876    1.1738    5.1421 H         1 <0>         0.0568
     44 H17        -2.0913    0.4841   -1.4708 H         1 <0>         0.1384
     45 H18        -1.0343   -0.6345   -2.3640 H         1 <0>         0.1326
     46 H19        -3.6561   -1.3793   -0.9893 H         1 <0>         0.0996
     47 H20        -3.4234   -1.1768   -2.7431 H         1 <0>         0.1187
     48 H21        -1.7798   -3.0115   -2.7617 H         1 <0>         0.1029
     49 H22        -2.3999   -3.2351    0.2202 H         1 <0>         0.0914
     50 H23        -1.3130   -4.2944   -0.7114 H         1 <0>         0.1202
     51 H24         0.1255   -2.3479   -1.2474 H         1 <0>         0.1314
     52 H25        -0.0313   -2.5591    0.5125 H         1 <0>         0.1326
     53 H26        -3.1229   -5.5627   -0.0798 H         1 <0>         0.1283
     54 H27        -2.3352   -7.8897   -0.2431 H         1 <0>         0.1385
     55 H28        -2.3342   -7.5889   -4.4994 H         1 <0>         0.1395
     56 H29        -3.1322   -5.2655   -4.3343 H         1 <0>         0.1354
     57 H30        -4.1256   -3.9426   -0.1295 H         1 <0>         0.3729
     58 H31        -1.7703   -0.9027    0.4628 H         1 <0>         0.4313
@<TRIPOS>BOND
     1    1    2 1
     2    1   30 1
     3    1   31 1
     4    1   32 1
     5    2    3 1
     6    2    4 1
     7    2   14 1
     8    4    5 2
     9    4    6 am
    10    6    7 am
    11    6   33 1
    12    7    8 2
    13    7    9 am
    14    9   10 1
    15    9   34 1
    16   10   11 1
    17   10   12 1
    18   10   13 1
    19   11   35 1
    20   11   36 1
    21   11   37 1
    22   12   38 1
    23   12   39 1
    24   12   40 1
    25   13   41 1
    26   13   42 1
    27   13   43 1
    28   14   19 1
    29   14   15 1
    30   14   58 1
    31   15   16 1
    32   15   44 1
    33   15   45 1
    34   16   17 1
    35   16   46 1
    36   16   47 1
    37   17   18 1
    38   17   20 1
    39   17   48 1
    40   18   19 1
    41   18   49 1
    42   18   50 1
    43   19   51 1
    44   19   52 1
    45   20   21 1
    46   20   22 1
    47   20   29 1
    48   22   27 ar
    49   22   23 ar
    50   23   24 ar
    51   23   53 1
    52   24   25 ar
    53   24   54 1
    54   25   26 ar
    55   25   28 1
    56   26   27 ar
    57   26   55 1
    58   27   56 1
    59   29   57 1
@<TRIPOS>MOLECULE
ZINC09614515
   57    61     0     0     0
SMALL
USER_CHARGES
5-bromo-3-hydroxy-3-(1H-indol-3-yl)-1-[(5-isopropyl-2-methyl-phenyl)methyl]indolin-2-one
@<TRIPOS>ATOM
      1 C1         -4.2074   -0.3246   -0.0236 C.3       1 <0>        -0.1358
      2 C2         -4.4055    0.7813    0.9808 C.ar      1 <0>        -0.0702
      3 C3         -5.1732    0.5609    2.1094 C.ar      1 <0>        -0.1189
      4 C4         -5.3584    1.5765    3.0283 C.ar      1 <0>        -0.0998
      5 C5         -4.7737    2.8120    2.8205 C.ar      1 <0>        -0.0756
      6 C6         -4.0031    3.0312    1.6942 C.ar      1 <0>        -0.0867
      7 C7         -3.8167    2.0148    0.7757 C.ar      1 <0>        -0.1164
      8 C8         -2.9764    2.2538   -0.4523 C.3       1 <0>         0.1432
      9 N1         -1.5605    2.0883   -0.1149 N.am      1 <0>        -0.5402
     10 C9         -0.8734    0.8775   -0.2139 C.ar      1 <0>         0.1777
     11 C10        -1.3044   -0.3838   -0.6210 C.ar      1 <0>        -0.1564
     12 C11        -0.4225   -1.4442   -0.6407 C.ar      1 <0>        -0.0450
     13 C12         0.8949   -1.2655   -0.2568 C.ar      1 <0>        -0.1187
     14 C13         1.3300   -0.0152    0.1493 C.ar      1 <0>        -0.0087
     15 C14         0.4513    1.0444    0.1691 C.ar      1 <0>        -0.1191
     16 C15         0.6040    2.4992    0.5492 C.3       1 <0>         0.2359
     17 C16        -0.7747    3.0842    0.3281 C.2       1 <0>         0.5202
     18 O1         -1.1062    4.2365    0.5111 O.2       1 <0>        -0.4766
     19 C17         1.0062    2.6275    1.9959 C.2       1 <0>        -0.2044
     20 C18         2.1216    3.2078    2.4661 C.2       1 <0>         0.0886
     21 N2          2.1441    3.1369    3.8324 N.pl3     1 <0>        -0.5888
     22 H1          2.8489    3.4905    4.3972 H         1 <0>         0.4202
     23 C19         1.0194    2.4846    4.2858 C.ar      1 <0>         0.0978
     24 C20         0.2573    2.1368    3.1553 C.ar      1 <0>        -0.0866
     25 C21        -0.9518    1.4572    3.3126 C.ar      1 <0>        -0.0656
     26 C22        -1.3893    1.1320    4.5657 C.ar      1 <0>        -0.1349
     27 C23        -0.6412    1.4727    5.6840 C.ar      1 <0>        -0.0949
     28 C24         0.5548    2.1439    5.5517 C.ar      1 <0>        -0.1278
     29 O2          1.5636    3.1390   -0.2945 O.3       1 <0>        -0.5213
     30 Br1         2.0974   -2.7247   -0.2860 Br        1 <0>        -0.0409
     31 C25        -4.9761    3.9195    3.8222 C.3       1 <0>        -0.0572
     32 C26        -6.4640    4.2659    3.9058 C.3       1 <0>        -0.1436
     33 C27        -4.4811    3.4617    5.1956 C.3       1 <0>        -0.1438
     34 H2         -3.3621   -0.9428    0.2787 H         1 <0>         0.0836
     35 H3         -5.1073   -0.9378   -0.0711 H         1 <0>         0.0735
     36 H4         -4.0095    0.1069   -1.0048 H         1 <0>         0.0701
     37 H5         -5.6302   -0.4041    2.2715 H         1 <0>         0.1232
     38 H6         -5.9603    1.4051    3.9085 H         1 <0>         0.1217
     39 H7         -3.5464    3.9963    1.5319 H         1 <0>         0.1232
     40 H8         -3.1469    3.2664   -0.8178 H         1 <0>         0.1006
     41 H9         -3.2517    1.5371   -1.2261 H         1 <0>         0.1014
     42 H10        -2.3310   -0.5311   -0.9221 H         1 <0>         0.1519
     43 H11        -0.7622   -2.4193   -0.9571 H         1 <0>         0.1433
     44 H12         2.3573    0.1285    0.4501 H         1 <0>         0.1384
     45 H13         2.8866    3.6655    1.8564 H         1 <0>         0.1766
     46 H14        -1.5394    1.1892    2.4469 H         1 <0>         0.1146
     47 H15        -2.3248    0.6062    4.6869 H         1 <0>         0.1201
     48 H16        -1.0004    1.2094    6.6679 H         1 <0>         0.1258
     49 H17         1.1295    2.4049    6.4281 H         1 <0>         0.1214
     50 H18         1.7011    4.0750   -0.0944 H         1 <0>         0.3887
     51 H19        -4.4152    4.7999    3.5087 H         1 <0>         0.0756
     52 H20        -7.0250    3.3855    4.2193 H         1 <0>         0.0563
     53 H21        -6.6104    5.0670    4.6304 H         1 <0>         0.0583
     54 H22        -6.8167    4.5920    2.9274 H         1 <0>         0.0552
     55 H23        -3.4082    3.2743    5.1512 H         1 <0>         0.0582
     56 H24        -4.6839    4.2388    5.9325 H         1 <0>         0.0570
     57 H25        -4.9984    2.5459    5.4816 H         1 <0>         0.0560
@<TRIPOS>BOND
     1    1    2 1
     2    1   34 1
     3    1   35 1
     4    1   36 1
     5    2    7 ar
     6    2    3 ar
     7    3    4 ar
     8    3   37 1
     9    4    5 ar
    10    4   38 1
    11    5    6 ar
    12    5   31 1
    13    6    7 ar
    14    6   39 1
    15    7    8 1
    16    8    9 1
    17    8   40 1
    18    8   41 1
    19    9   17 am
    20    9   10 1
    21   10   15 ar
    22   10   11 ar
    23   11   12 ar
    24   11   42 1
    25   12   13 ar
    26   12   43 1
    27   13   14 ar
    28   13   30 1
    29   14   15 ar
    30   14   44 1
    31   15   16 1
    32   16   17 1
    33   16   19 1
    34   16   29 1
    35   17   18 2
    36   19   24 1
    37   19   20 2
    38   20   21 1
    39   20   45 1
    40   21   22 1
    41   21   23 1
    42   23   28 ar
    43   23   24 ar
    44   24   25 ar
    45   25   26 ar
    46   25   46 1
    47   26   27 ar
    48   26   47 1
    49   27   28 ar
    50   27   48 1
    51   28   49 1
    52   29   50 1
    53   31   32 1
    54   31   33 1
    55   31   51 1
    56   32   52 1
    57   32   53 1
    58   32   54 1
    59   33   55 1
    60   33   56 1
    61   33   57 1
@<TRIPOS>MOLECULE
ZINC02840968
   58    62     0     0     0
SMALL
USER_CHARGES
(4S,7R)-2-amino-4-[3-[(2-chloro-6-fluoro-phenyl)methoxy]phenyl]-5-oxo-7-phenyl-4,6,7,8-tetrahydrochromene-3-carbonitrile
@<TRIPOS>ATOM
      1 C1         -3.8323    3.3614    7.2737 C.ar      1 <0>        -0.1171
      2 C2         -2.8247    2.4281    7.4307 C.ar      1 <0>        -0.1169
      3 C3         -2.1293    1.9696    6.3276 C.ar      1 <0>        -0.1091
      4 C4         -2.4420    2.4437    5.0673 C.ar      1 <0>        -0.0837
      5 C5         -3.4464    3.3806    4.9108 C.ar      1 <0>        -0.1129
      6 C6         -4.1447    3.8359    6.0135 C.ar      1 <0>        -0.1164
      7 C7         -1.6839    1.9438    3.8646 C.3       1 <0>        -0.0378
      8 H1         -0.9382    1.2137    4.1792 H         1 <0>         0.0959
      9 C8         -0.9926    3.1175    3.1683 C.3       1 <0>        -0.0727
     10 C9         -0.2662    2.6232    1.9392 C.2       1 <0>         0.1682
     11 C10        -0.7327    1.5701    1.2434 C.2       1 <0>        -0.2579
     12 C11        -0.0127    1.0858    0.0080 C.3       1 <0>         0.0924
     13 H2          0.0021   -0.0041    0.0020 H         1 <0>         0.1016
     14 C12         1.3985    1.6037   -0.0027 C.2       1 <0>        -0.2588
     15 C13         1.7472    2.6584    0.7736 C.2       1 <0>         0.4265
     16 O1          0.8523    3.2714    1.5636 O.3       1 <0>        -0.2380
     17 N1          3.0436    3.1095    0.7510 N.pl3     1 <0>        -0.8292
     18 C14         2.3799    0.9788   -0.8375 C.1       1 <0>         0.2709
     19 N2          3.1585    0.4831   -1.4998 N.1       1 <0>        -0.4363
     20 C15        -0.7368    1.5826   -1.2167 C.ar      1 <0>        -0.0333
     21 C16        -0.8836    2.9413   -1.4288 C.ar      1 <0>        -0.1436
     22 C17        -1.5465    3.4002   -2.5518 C.ar      1 <0>        -0.0788
     23 C18        -2.0650    2.5020   -3.4647 C.ar      1 <0>        -0.2092
     24 C19        -1.9195    1.1388   -3.2539 C.ar      1 <0>         0.1331
     25 C20        -1.2483    0.6808   -2.1292 C.ar      1 <0>        -0.1284
     26 O2         -2.4282    0.2533   -4.1507 O.3       1 <0>        -0.3026
     27 C21        -3.1011    0.7963   -5.2884 C.3       1 <0>         0.1003
     28 C22        -3.5936   -0.3269   -6.1641 C.ar      1 <0>        -0.1270
     29 C23        -4.8553   -0.8603   -5.9625 C.ar      1 <0>         0.1378
     30 C24        -5.3065   -1.8921   -6.7677 C.ar      1 <0>        -0.1521
     31 C25        -4.4976   -2.3893   -7.7722 C.ar      1 <0>        -0.0656
     32 C26        -3.2380   -1.8572   -7.9732 C.ar      1 <0>        -0.1237
     33 C27        -2.7878   -0.8216   -7.1733 C.ar      1 <0>         0.0115
     34 Cl1        -1.2085   -0.1488   -7.4316 Cl        1 <0>        -0.0444
     35 F1         -5.6454   -0.3744   -4.9803 F         1 <0>        -0.1249
     36 C28        -1.8983    0.8877    1.6417 C.2       1 <0>         0.4021
     37 O3         -2.2972   -0.0487    0.9787 O.2       1 <0>        -0.4412
     38 C29        -2.6581    1.2971    2.8740 C.3       1 <0>        -0.1507
     39 H3         -4.3756    3.7197    8.1356 H         1 <0>         0.1227
     40 H4         -2.5806    2.0574    8.4153 H         1 <0>         0.1239
     41 H5         -1.3419    1.2406    6.4502 H         1 <0>         0.1240
     42 H6         -3.6877    3.7543    3.9267 H         1 <0>         0.1239
     43 H7         -4.9321    4.5648    5.8908 H         1 <0>         0.1240
     44 H8         -0.2780    3.5752    3.8524 H         1 <0>         0.1047
     45 H9         -1.7387    3.8564    2.8761 H         1 <0>         0.1111
     46 H10         3.6988    2.6741    0.1835 H         1 <0>         0.4268
     47 H11         3.3043    3.8636    1.3026 H         1 <0>         0.4120
     48 H12        -0.4793    3.6449   -0.7162 H         1 <0>         0.1156
     49 H13        -1.6596    4.4617   -2.7154 H         1 <0>         0.1244
     50 H14        -2.5829    2.8611   -4.3418 H         1 <0>         0.1254
     51 H15        -1.1295   -0.3801   -1.9653 H         1 <0>         0.1305
     52 H16        -3.9482    1.3969   -4.9570 H         1 <0>         0.0785
     53 H17        -2.4110    1.4223   -5.8541 H         1 <0>         0.0825
     54 H18        -6.2904   -2.3089   -6.6107 H         1 <0>         0.1473
     55 H19        -4.8499   -3.1943   -8.4002 H         1 <0>         0.1478
     56 H20        -2.6066   -2.2466   -8.7581 H         1 <0>         0.1454
     57 H21        -3.0778    0.4934    3.2958 H         1 <0>         0.0939
     58 H22        -3.4347    2.0131    2.6054 H         1 <0>         0.1076
@<TRIPOS>BOND
     1    1    6 ar
     2    1    2 ar
     3    1   39 1
     4    2    3 ar
     5    2   40 1
     6    3    4 ar
     7    3   41 1
     8    4    5 ar
     9    4    7 1
    10    5    6 ar
    11    5   42 1
    12    6   43 1
    13    7    8 1
    14    7   38 1
    15    7    9 1
    16    9   10 1
    17    9   44 1
    18    9   45 1
    19   10   16 1
    20   10   11 2
    21   11   12 1
    22   11   36 1
    23   12   13 1
    24   12   14 1
    25   12   20 1
    26   14   15 2
    27   14   18 1
    28   15   16 1
    29   15   17 1
    30   17   46 1
    31   17   47 1
    32   18   19 3
    33   20   25 ar
    34   20   21 ar
    35   21   22 ar
    36   21   48 1
    37   22   23 ar
    38   22   49 1
    39   23   24 ar
    40   23   50 1
    41   24   25 ar
    42   24   26 1
    43   25   51 1
    44   26   27 1
    45   27   28 1
    46   27   52 1
    47   27   53 1
    48   28   33 ar
    49   28   29 ar
    50   29   30 ar
    51   29   35 1
    52   30   31 ar
    53   30   54 1
    54   31   32 ar
    55   31   55 1
    56   32   33 ar
    57   32   56 1
    58   33   34 1
    59   36   37 2
    60   36   38 1
    61   38   57 1
    62   38   58 1
@<TRIPOS>MOLECULE
ZINC35387544
   57    61     0     0     0
SMALL
USER_CHARGES

@<TRIPOS>ATOM
      1 C1          0.2103    1.6351   -0.4518 C.3       1 <0>        -0.1171
      2 C2          0.1879    0.1291   -0.4026 C.ar      1 <0>        -0.0949
      3 C3          0.2095   -0.6000   -1.5776 C.ar      1 <0>        -0.0939
      4 C4          0.1891   -1.9801   -1.5361 C.ar      1 <0>        -0.1545
      5 C5          0.1468   -2.6361   -0.3122 C.ar      1 <0>         0.1440
      6 C6          0.1252   -1.9008    0.8659 C.ar      1 <0>        -0.1263
      7 C7          0.1515   -0.5207    0.8173 C.ar      1 <0>        -0.0697
      8 C8          0.1343    0.2779    2.0952 C.3       1 <0>        -0.1175
      9 N1          0.1256   -4.0319   -0.2666 N.pl3     1 <0>        -1.0580
     10 S1          1.1534   -4.9074   -1.2255 S.o2      1 <0>         2.6932
     11 O1          0.9123   -6.2773   -0.9345 O.2       1 <0>        -0.9561
     12 O2          1.0364   -4.3754   -2.5379 O.2       1 <0>        -0.9525
     13 C9          2.7938   -4.5589   -0.6851 C.ar      1 <0>        -0.7278
     14 C10         3.4955   -3.5041   -1.2399 C.ar      1 <0>         0.0339
     15 C11         4.7777   -3.2244   -0.8143 C.ar      1 <0>        -0.2130
     16 C12         5.3753   -4.0013    0.1710 C.ar      1 <0>         0.2812
     17 C13         4.6637   -5.0743    0.7191 C.ar      1 <0>        -0.1592
     18 C14         3.3780   -5.3363    0.2978 C.ar      1 <0>         0.0330
     19 C15         5.3501   -5.8997    1.7365 C.3       1 <0>        -0.0269
     20 H1          5.9972   -6.6076    1.2186 H         1 <0>         0.0869
     21 C16         4.5997   -6.6416    2.7821 C.2       1 <0>        -0.1497
     22 C17         5.3502   -6.7096    3.8750 C.2       1 <0>        -0.1643
     23 C18         6.6723   -5.9739    3.6483 C.3       1 <0>        -0.0890
     24 C19         6.2604   -4.9578    2.5803 C.3       1 <0>        -0.1069
     25 H2          5.7013   -4.1222    3.0015 H         1 <0>         0.0998
     26 C20         7.3531   -4.4954    1.6332 C.3       1 <0>         0.1982
     27 H3          7.8423   -5.3547    1.1746 H         1 <0>         0.0940
     28 N2          6.6697   -3.6856    0.6011 N.pl3     1 <0>        -0.7270
     29 C21         8.3627   -3.6563    2.3732 C.ar      1 <0>        -0.0756
     30 C22         8.0468   -3.1251    3.6098 C.ar      1 <0>        -0.0931
     31 C23         8.9729   -2.3559    4.2888 C.ar      1 <0>        -0.1037
     32 C24        10.2156   -2.1173    3.7317 C.ar      1 <0>        -0.1039
     33 C25        10.5323   -2.6478    2.4955 C.ar      1 <0>        -0.0910
     34 C26         9.6075   -3.4222    1.8179 C.ar      1 <0>        -0.0814
     35 Br1        10.0428   -4.1544    0.1296 Br        1 <0>        -0.0408
     36 H4          1.2430    1.9837   -0.4408 H         1 <0>         0.0703
     37 H5         -0.2785    1.9762   -1.3644 H         1 <0>         0.0674
     38 H6         -0.3174    2.0349    0.4142 H         1 <0>         0.0686
     39 H7          0.2420   -0.0894   -2.5287 H         1 <0>         0.1294
     40 H8          0.2056   -2.5488   -2.4541 H         1 <0>         0.1575
     41 H9          0.0920   -2.4077    1.8190 H         1 <0>         0.1265
     42 H10        -0.8971    0.4850    2.3804 H         1 <0>         0.0724
     43 H11         0.6227   -0.2915    2.8861 H         1 <0>         0.0660
     44 H12         0.6650    1.2178    1.9435 H         1 <0>         0.0705
     45 H13        -0.4912   -4.4885    0.3268 H         1 <0>         0.4253
     46 H14         3.0388   -2.8980   -2.0084 H         1 <0>         0.1380
     47 H15         5.3199   -2.3979   -1.2493 H         1 <0>         0.1297
     48 H16         2.8259   -6.1556    0.7341 H         1 <0>         0.1368
     49 H17         3.6087   -7.0565    2.6715 H         1 <0>         0.1337
     50 H18         5.0687   -7.2103    4.7896 H         1 <0>         0.1320
     51 H19         6.9977   -5.4664    4.5564 H         1 <0>         0.0761
     52 H20         7.4418   -6.6560    3.2868 H         1 <0>         0.0848
     53 H21         7.1268   -2.9221    0.2151 H         1 <0>         0.4040
     54 H22         7.0760   -3.3110    4.0452 H         1 <0>         0.1364
     55 H23         8.7256   -1.9408    5.2547 H         1 <0>         0.1332
     56 H24        10.9387   -1.5158    4.2624 H         1 <0>         0.1350
     57 H25        11.5030   -2.4614    2.0604 H         1 <0>         0.1361
@<TRIPOS>BOND
     1    1    2 1
     2    1   36 1
     3    1   37 1
     4    1   38 1
     5    2    7 ar
     6    2    3 ar
     7    3    4 ar
     8    3   39 1
     9    4    5 ar
    10    4   40 1
    11    5    6 ar
    12    5    9 1
    13    6    7 ar
    14    6   41 1
    15    7    8 1
    16    8   42 1
    17    8   43 1
    18    8   44 1
    19    9   10 1
    20    9   45 1
    21   10   11 2
    22   10   12 2
    23   10   13 1
    24   13   18 ar
    25   13   14 ar
    26   14   15 ar
    27   14   46 1
    28   15   16 ar
    29   15   47 1
    30   16   28 1
    31   16   17 ar
    32   17   18 ar
    33   17   19 1
    34   18   48 1
    35   19   20 1
    36   19   24 1
    37   19   21 1
    38   21   22 2
    39   21   49 1
    40   22   23 1
    41   22   50 1
    42   23   24 1
    43   23   51 1
    44   23   52 1
    45   24   25 1
    46   24   26 1
    47   26   27 1
    48   26   28 1
    49   26   29 1
    50   28   53 1
    51   29   34 ar
    52   29   30 ar
    53   30   31 ar
    54   30   54 1
    55   31   32 ar
    56   31   55 1
    57   32   33 ar
    58   32   56 1
    59   33   34 ar
    60   33   57 1
    61   34   35 1
@<TRIPOS>MOLECULE
ZINC39914819
   51    55     0     0     0
SMALL
USER_CHARGES

@<TRIPOS>ATOM
      1 C1         -0.8485    0.9506   -0.9449 C.3       1 <0>        -0.1249
      2 C2         -0.6886   -0.5314   -0.7233 C.ar      1 <0>        -0.0453
      3 C3         -1.5981   -1.4123   -1.2779 C.ar      1 <0>        -0.1349
      4 C4         -1.4556   -2.7754   -1.0766 C.ar      1 <0>         0.1475
      5 C5         -0.3893   -3.2569   -0.3116 C.ar      1 <0>        -0.0361
      6 C6          0.5220   -2.3621    0.2426 C.ar      1 <0>        -0.0680
      7 C7          0.3717   -1.0051    0.0302 C.ar      1 <0>        -0.0462
      8 Cl1         1.5121    0.1097    0.7161 Cl        1 <0>        -0.0565
      9 C8         -0.2296   -4.7157   -0.0907 C.2       1 <0>         0.1257
     10 C9          0.0439   -5.3436    1.1293 C.2       1 <0>        -0.1711
     11 C10         0.1041   -6.6957    0.8517 C.2       1 <0>        -0.0557
     12 N1         -0.1297   -6.8189   -0.4885 N.pl3     1 <0>        -0.3297
     13 H1         -0.1502   -7.6574   -0.9756 H         1 <0>         0.4548
     14 N2         -0.3250   -5.6590   -1.0071 N.2       1 <0>        -0.2361
     15 C11         0.3892   -7.4156    2.0979 C.2       1 <0>         0.6013
     16 O1          0.5053   -8.6227    2.1914 O.2       1 <0>        -0.5098
     17 N3          0.5045   -6.5514    3.1223 N.am      1 <0>        -0.5922
     18 C12         0.2995   -5.1926    2.6038 C.3       1 <0>         0.2517
     19 H2          1.1916   -4.5888    2.7701 H         1 <0>         0.1149
     20 C13        -0.8908   -4.5562    3.2741 C.ar      1 <0>        -0.0809
     21 C14        -2.0461   -5.2896    3.4722 C.ar      1 <0>        -0.0779
     22 C15        -3.1386   -4.7070    4.0863 C.ar      1 <0>        -0.0947
     23 C16        -3.0764   -3.3895    4.5037 C.ar      1 <0>        -0.0235
     24 C17        -1.9195   -2.6553    4.3058 C.ar      1 <0>        -0.0274
     25 C18        -0.8250   -3.2417    3.6955 C.ar      1 <0>        -0.0800
     26 Cl2        -1.8400   -1.0018    4.8285 Cl        1 <0>        -0.0398
     27 Cl3        -4.4486   -2.6570    5.2747 Cl        1 <0>        -0.0424
     28 C19         0.7861   -6.9049    4.5158 C.3       1 <0>         0.1804
     29 C20         2.2761   -6.9117    4.7411 C.ar      1 <0>        -0.1307
     30 C21         3.0002   -8.0715    4.5368 C.ar      1 <0>        -0.0638
     31 C22         4.3668   -8.0789    4.7426 C.ar      1 <0>        -0.1556
     32 C23         5.0107   -6.9240    5.1535 C.ar      1 <0>         0.1088
     33 C24         4.2844   -5.7630    5.3577 C.ar      1 <0>        -0.1560
     34 C25         2.9187   -5.7567    5.1462 C.ar      1 <0>        -0.0718
     35 F1          6.3465   -6.9301    5.3554 F         1 <0>        -0.1372
     36 O2         -2.3498   -3.6418   -1.6208 O.3       1 <0>        -0.4869
     37 H3         -0.3125    1.2429   -1.8479 H         1 <0>         0.0808
     38 H4         -1.9062    1.1892   -1.0570 H         1 <0>         0.0750
     39 H5         -0.4426    1.4917   -0.0902 H         1 <0>         0.0782
     40 H6         -2.4209   -1.0374   -1.8685 H         1 <0>         0.1431
     41 H7          1.3475   -2.7285    0.8348 H         1 <0>         0.1387
     42 H8         -2.0950   -6.3181    3.1464 H         1 <0>         0.1333
     43 H9         -4.0409   -5.2802    4.2401 H         1 <0>         0.1454
     44 H10         0.0792   -2.6708    3.5445 H         1 <0>         0.1455
     45 H11         0.3220   -6.1732    5.1772 H         1 <0>         0.1011
     46 H12         0.3819   -7.8946    4.7284 H         1 <0>         0.1043
     47 H13         2.4977   -8.9723    4.2167 H         1 <0>         0.1377
     48 H14         4.9322   -8.9851    4.5834 H         1 <0>         0.1375
     49 H15         4.7856   -4.8617    5.6785 H         1 <0>         0.1383
     50 H16         2.3527   -4.8500    5.3011 H         1 <0>         0.1339
     51 H17        -2.1116   -3.9482   -2.5065 H         1 <0>         0.3970
@<TRIPOS>BOND
     1    1    2 1
     2    1   37 1
     3    1   38 1
     4    1   39 1
     5    2    7 ar
     6    2    3 ar
     7    3    4 ar
     8    3   40 1
     9    4    5 ar
    10    4   36 1
    11    5    6 ar
    12    5    9 1
    13    6    7 ar
    14    6   41 1
    15    7    8 1
    16    9   14 2
    17    9   10 1
    18   10   18 1
    19   10   11 2
    20   11   12 1
    21   11   15 1
    22   12   13 1
    23   12   14 1
    24   15   16 2
    25   15   17 am
    26   17   18 1
    27   17   28 1
    28   18   19 1
    29   18   20 1
    30   20   25 ar
    31   20   21 ar
    32   21   22 ar
    33   21   42 1
    34   22   23 ar
    35   22   43 1
    36   23   24 ar
    37   23   27 1
    38   24   25 ar
    39   24   26 1
    40   25   44 1
    41   28   29 1
    42   28   45 1
    43   28   46 1
    44   29   34 ar
    45   29   30 ar
    46   30   31 ar
    47   30   47 1
    48   31   32 ar
    49   31   48 1
    50   32   33 ar
    51   32   35 1
    52   33   34 ar
    53   33   49 1
    54   34   50 1
    55   36   51 1
@<TRIPOS>MOLECULE
ZINC58846967
   51    55     0     0     0
SMALL
USER_CHARGES

@<TRIPOS>ATOM
      1 C1          0.2486    1.4418   -0.4024 C.ar      1 <0>        -0.0974
      2 C2          1.4851    2.0521   -0.5050 C.ar      1 <0>        -0.1055
      3 C3          2.6407    1.2948   -0.4473 C.ar      1 <0>        -0.1307
      4 C4          2.5626   -0.0764   -0.2867 C.ar      1 <0>         0.0790
      5 C5          1.3200   -0.6924   -0.1833 C.ar      1 <0>         0.1279
      6 C6          0.1628    0.0723   -0.2418 C.ar      1 <0>        -0.1498
      7 N1          1.2364   -2.0789   -0.0212 N.pl3     1 <0>        -1.0538
      8 S1          0.0007   -2.9225   -0.7311 S.o2      1 <0>         2.6932
      9 O1          0.2628   -4.2996   -0.4982 O.2       1 <0>        -0.9496
     10 O2         -1.2070   -2.2967   -0.3200 O.2       1 <0>        -0.9497
     11 C7          0.1308   -2.6722   -2.4704 C.ar      1 <0>        -0.7264
     12 C8         -0.5211   -1.6068   -3.0644 C.ar      1 <0>         0.0289
     13 C9         -0.4230   -1.4176   -4.4277 C.ar      1 <0>        -0.2084
     14 C10         0.3310   -2.2932   -5.2020 C.ar      1 <0>         0.2787
     15 C11         0.9959   -3.3542   -4.6065 C.ar      1 <0>        -0.1646
     16 C12         0.8876   -3.5365   -3.2352 C.ar      1 <0>         0.0335
     17 C13         1.8456   -4.2904   -5.3972 C.3       1 <0>        -0.0112
     18 H1          2.7670   -4.4710   -4.8435 H         1 <0>         0.0934
     19 C14         1.1657   -5.6155   -5.6294 C.2       1 <0>        -0.1607
     20 C15         1.4667   -6.0770   -6.8174 C.2       1 <0>        -0.1535
     21 C16         2.3850   -5.1241   -7.5504 C.3       1 <0>        -0.1028
     22 C17         2.2135   -3.7878   -6.7919 C.3       1 <0>        -0.0911
     23 H2          3.1506   -3.2315   -6.7744 H         1 <0>         0.0989
     24 C18         1.1103   -2.9993   -7.4670 C.3       1 <0>         0.2056
     25 H3          1.5508   -2.3999   -8.2637 H         1 <0>         0.0970
     26 N2          0.4052   -2.1009   -6.5764 N.pl3     1 <0>        -0.7207
     27 C19         0.1361   -3.9701   -8.0831 C.ar      1 <0>        -0.0858
     28 C20        -0.8213   -4.5819   -7.2953 C.ar      1 <0>        -0.0677
     29 C21        -1.7150   -5.4728   -7.8590 C.ar      1 <0>        -0.1029
     30 C22        -1.6522   -5.7524   -9.2124 C.ar      1 <0>        -0.0265
     31 C23        -0.6939   -5.1394  -10.0014 C.ar      1 <0>        -0.0336
     32 C24         0.1966   -4.2440   -9.4364 C.ar      1 <0>        -0.0924
     33 Cl1        -0.6134   -5.4897  -11.6998 Cl        1 <0>        -0.0470
     34 Cl2        -2.7742   -6.8717   -9.9209 Cl        1 <0>        -0.0473
     35 F1          3.6915   -0.8165   -0.2308 F         1 <0>        -0.1343
     36 H4         -0.6515    2.0372   -0.4434 H         1 <0>         0.1387
     37 H5          1.5485    3.1229   -0.6308 H         1 <0>         0.1366
     38 H6          3.6049    1.7746   -0.5281 H         1 <0>         0.1404
     39 H7         -0.8037   -0.4029   -0.1615 H         1 <0>         0.1704
     40 H8          1.9021   -2.5466    0.5070 H         1 <0>         0.4293
     41 H9         -1.1053   -0.9256   -2.4634 H         1 <0>         0.1402
     42 H10        -0.9330   -0.5880   -4.8947 H         1 <0>         0.1335
     43 H11         1.3964   -4.3639   -2.7630 H         1 <0>         0.1379
     44 H12         0.5225   -6.1126   -4.9184 H         1 <0>         0.1295
     45 H13         1.1074   -7.0126   -7.2199 H         1 <0>         0.1257
     46 H14         3.4162   -5.4738   -7.5007 H         1 <0>         0.0851
     47 H15         2.0689   -5.0115   -8.5875 H         1 <0>         0.0831
     48 H16        -0.0573   -1.3397   -6.9604 H         1 <0>         0.4070
     49 H17        -0.8706   -4.3639   -6.2387 H         1 <0>         0.1361
     50 H18        -2.4621   -5.9509   -7.2429 H         1 <0>         0.1411
     51 H19         0.9419   -3.7624  -10.0520 H         1 <0>         0.1423
@<TRIPOS>BOND
     1    1    6 ar
     2    1    2 ar
     3    1   36 1
     4    2    3 ar
     5    2   37 1
     6    3    4 ar
     7    3   38 1
     8    4    5 ar
     9    4   35 1
    10    5    6 ar
    11    5    7 1
    12    6   39 1
    13    7    8 1
    14    7   40 1
    15    8    9 2
    16    8   10 2
    17    8   11 1
    18   11   16 ar
    19   11   12 ar
    20   12   13 ar
    21   12   41 1
    22   13   14 ar
    23   13   42 1
    24   14   26 1
    25   14   15 ar
    26   15   16 ar
    27   15   17 1
    28   16   43 1
    29   17   18 1
    30   17   22 1
    31   17   19 1
    32   19   20 2
    33   19   44 1
    34   20   21 1
    35   20   45 1
    36   21   22 1
    37   21   46 1
    38   21   47 1
    39   22   23 1
    40   22   24 1
    41   24   25 1
    42   24   26 1
    43   24   27 1
    44   26   48 1
    45   27   32 ar
    46   27   28 ar
    47   28   29 ar
    48   28   49 1
    49   29   30 ar
    50   29   50 1
    51   30   31 ar
    52   30   34 1
    53   31   32 ar
    54   31   33 1
    55   32   51 1
@<TRIPOS>MOLECULE
ZINC12291588
   66    69     0     0     0
SMALL
USER_CHARGES
1-[6-[(1R)-1-hydroxy-2-[4-hydroxy-4-(o-tolyl)-1-piperidyl]ethyl]-3,4-dihydro-2H-quinolin-1-yl]propan-1-one
@<TRIPOS>ATOM
      1 C1         -2.3534   10.3598   -0.5566 C.3       1 <0>        -0.1412
      2 C2         -1.2582    9.8699    0.3929 C.3       1 <0>        -0.1435
      3 C3         -1.1928    8.3649    0.3504 C.2       1 <0>         0.5165
      4 O1         -1.8834    7.7498   -0.4343 O.2       1 <0>        -0.5108
      5 N1         -0.3668    7.7025    1.1843 N.am      1 <0>        -0.5593
      6 C4          0.5728    8.4359    2.0435 C.3       1 <0>         0.0958
      7 C5          1.9314    7.7275    1.9640 C.3       1 <0>        -0.1378
      8 C6          1.7857    6.3139    2.5268 C.3       1 <0>        -0.0821
      9 C7          0.6293    5.6030    1.8747 C.ar      1 <0>        -0.1109
     10 C8         -0.3890    6.3023    1.2458 C.ar      1 <0>         0.1802
     11 C9         -1.4471    5.6156    0.6622 C.ar      1 <0>        -0.1459
     12 C10        -1.4838    4.2360    0.7059 C.ar      1 <0>        -0.0862
     13 C11        -0.4662    3.5389    1.3306 C.ar      1 <0>        -0.1656
     14 C12         0.5833    4.2198    1.9171 C.ar      1 <0>        -0.0794
     15 C13        -0.5050    2.0331    1.3771 C.3       1 <0>         0.1396
     16 H1          0.0720    1.6811    2.2323 H         1 <0>         0.1269
     17 C14         0.0959    1.4674    0.0888 C.3       1 <0>        -0.0379
     18 C15         0.9363   -0.5170    1.1917 C.3       1 <0>        -0.0003
     19 C16         0.7618   -2.0331    1.3061 C.3       1 <0>        -0.1909
     20 C17         1.1093   -2.6847   -0.0352 C.3       1 <0>         0.1773
     21 C18         0.2136   -2.0942   -1.1277 C.3       1 <0>        -0.1346
     22 C19         0.4039   -0.5764   -1.1717 C.3       1 <0>         0.0020
     23 C20         0.8819   -4.1718    0.0534 C.ar      1 <0>        -0.1324
     24 C21         0.0766   -4.8045   -0.8755 C.ar      1 <0>        -0.1046
     25 C22        -0.1320   -6.1683   -0.7942 C.ar      1 <0>        -0.1182
     26 C23         0.4654   -6.9001    0.2154 C.ar      1 <0>        -0.0998
     27 C24         1.2711   -6.2677    1.1433 C.ar      1 <0>        -0.1131
     28 C25         1.4829   -4.9040    1.0598 C.ar      1 <0>        -0.0770
     29 C26         2.3656   -4.2154    2.0685 C.3       1 <0>        -0.1345
     30 O2          2.4792   -2.4277   -0.3502 O.3       1 <0>        -0.5518
     31 O3         -1.8593    1.5952    1.5034 O.3       1 <0>        -0.5495
     32 H2         -2.1264   10.0345   -1.5718 H         1 <0>         0.0649
     33 H3         -3.3134    9.9455   -0.2485 H         1 <0>         0.0629
     34 H4         -2.4008   11.4483   -0.5259 H         1 <0>         0.0693
     35 H5         -1.4853   10.1952    1.4081 H         1 <0>         0.0995
     36 H6         -0.2983   10.2842    0.0848 H         1 <0>         0.1011
     37 H7          0.2134    8.4306    3.0725 H         1 <0>         0.0837
     38 H8          0.6710    9.4631    1.6922 H         1 <0>         0.1008
     39 H9          2.6660    8.2799    2.5500 H         1 <0>         0.0938
     40 H10         2.2556    7.6751    0.9247 H         1 <0>         0.0747
     41 H11         1.6131    6.3707    3.6016 H         1 <0>         0.0838
     42 H12         2.7029    5.7558    2.3393 H         1 <0>         0.0841
     43 H13        -2.2412    6.1614    0.1744 H         1 <0>         0.1720
     44 H14        -2.3063    3.7023    0.2532 H         1 <0>         0.1236
     45 H15         1.3734    3.6704    2.4073 H         1 <0>         0.1282
     46 H16         1.1290    1.8014   -0.0076 H         1 <0>         0.1426
     47 H17        -0.4810    1.8194   -0.7664 H         1 <0>         0.1336
     48 H18         1.9734   -0.2883    0.9465 H         1 <0>         0.1353
     49 H19         0.6759   -0.0488    2.1409 H         1 <0>         0.1291
     50 H20        -0.2720   -2.2619    1.5649 H         1 <0>         0.1003
     51 H21         1.4247   -2.4188    2.0807 H         1 <0>         0.1309
     52 H22        -0.8289   -2.3240   -0.9073 H         1 <0>         0.1037
     53 H23         0.4846   -2.5230   -2.0925 H         1 <0>         0.1226
     54 H24        -0.2431   -0.1512   -1.9389 H         1 <0>         0.1294
     55 H25         1.4436   -0.3474   -1.4058 H         1 <0>         0.1386
     56 H26        -0.3898   -4.2329   -1.6643 H         1 <0>         0.1268
     57 H27        -0.7614   -6.6625   -1.5195 H         1 <0>         0.1293
     58 H28         0.3026   -7.9659    0.2787 H         1 <0>         0.1301
     59 H29         1.7380   -6.8394    1.9317 H         1 <0>         0.1294
     60 H30         1.7848   -3.9835    2.9612 H         1 <0>         0.0821
     61 H31         3.1942   -4.8718    2.3344 H         1 <0>         0.0816
     62 H32         2.7564   -3.2927    1.6394 H         1 <0>         0.0654
     63 H33         3.1072   -2.8508    0.2513 H         1 <0>         0.3897
     64 H34        -2.4320    1.8730    0.7755 H         1 <0>         0.3881
     65 N2          0.0298   -0.0077    0.1408 N.4       1 <0>        -0.3902
     66 H35        -0.9315   -0.2907    0.3645 H         1 <0>         0.4284
@<TRIPOS>BOND
     1    1    2 1
     2    1   32 1
     3    1   33 1
     4    1   34 1
     5    2    3 1
     6    2   35 1
     7    2   36 1
     8    3    4 2
     9    3    5 am
    10    5   10 1
    11    5    6 1
    12    6    7 1
    13    6   37 1
    14    6   38 1
    15    7    8 1
    16    7   39 1
    17    7   40 1
    18    8    9 1
    19    8   41 1
    20    8   42 1
    21    9   14 ar
    22    9   10 ar
    23   10   11 ar
    24   11   12 ar
    25   11   43 1
    26   12   13 ar
    27   12   44 1
    28   13   14 ar
    29   13   15 1
    30   14   45 1
    31   15   16 1
    32   15   17 1
    33   15   31 1
    34   17   46 1
    35   17   47 1
    36   17   65 1
    37   18   19 1
    38   18   48 1
    39   18   49 1
    40   18   65 1
    41   19   20 1
    42   19   50 1
    43   19   51 1
    44   20   21 1
    45   20   23 1
    46   20   30 1
    47   21   22 1
    48   21   52 1
    49   21   53 1
    50   22   54 1
    51   22   55 1
    52   22   65 1
    53   23   28 ar
    54   23   24 ar
    55   24   25 ar
    56   24   56 1
    57   25   26 ar
    58   25   57 1
    59   26   27 ar
    60   26   58 1
    61   27   28 ar
    62   27   59 1
    63   28   29 1
    64   29   60 1
    65   29   61 1
    66   29   62 1
    67   30   63 1
    68   31   64 1
    69   65   66 1
@<TRIPOS>MOLECULE
ZINC39467441
   49    52     0     0     0
SMALL
USER_CHARGES

@<TRIPOS>ATOM
      1 C1         -0.0187    1.5258    0.0104 C.3       1 <0>        -0.1576
      2 C2          0.0021   -0.0041    0.0020 C.3       1 <0>         0.0560
      3 O1          0.6709   -0.4649   -1.1737 O.3       1 <0>        -0.2972
      4 C3          0.7768   -1.8100   -1.3361 C.2       1 <0>         0.1678
      5 C4          0.2622   -2.6412   -0.4210 C.2       1 <0>        -0.2952
      6 C5          0.3876   -4.1235   -0.6409 C.3       1 <0>        -0.0485
      7 H1          1.3776   -4.4543   -0.3269 H         1 <0>         0.1091
      8 C6         -0.6741   -4.8989    0.1297 C.3       1 <0>        -0.0061
      9 N1         -0.4866   -6.3451   -0.0812 N.4       1 <0>        -0.1475
     10 C7         -0.5991   -6.6987   -1.4957 C.3       1 <0>        -0.0533
     11 H2         -1.6076   -6.4740   -1.8428 H         1 <0>         0.1636
     12 C8          0.4134   -5.9165   -2.3444 C.3       1 <0>        -0.1257
     13 C9          0.1999   -4.4208   -2.1344 C.3       1 <0>        -0.0731
     14 H3         -0.8125   -4.1504   -2.4344 H         1 <0>         0.1148
     15 C10         1.1906   -3.6074   -2.9205 C.2       1 <0>        -0.0823
     16 C11         1.4546   -2.3632   -2.5260 C.2       1 <0>        -0.0831
     17 Br1         2.7005   -1.3117   -3.4840 Br        1 <0>        -0.0081
     18 C12        -0.3051   -8.1865   -1.7275 C.3       1 <0>         0.0777
     19 O2         -1.2731   -8.9799   -1.0166 O.3       1 <0>        -0.7003
     20 P1         -1.5277   -8.6363    0.5534 P.3       1 <0>         2.5238
     21 O3         -0.4705   -9.2468    1.3900 O.2       1 <0>        -0.9781
     22 N2         -1.4713   -6.9735    0.6516 N.pl3     1 <0>        -1.0290
     23 C13        -3.1606   -9.2334    1.0709 C.ar      1 <0>        -0.7764
     24 C14        -4.2657   -8.4123    0.9548 C.ar      1 <0>        -0.0593
     25 C15        -5.5103   -8.8666    1.3495 C.ar      1 <0>        -0.1404
     26 C16        -5.6527  -10.1435    1.8609 C.ar      1 <0>        -0.0469
     27 C17        -4.5511  -10.9684    1.9786 C.ar      1 <0>        -0.1558
     28 C18        -3.3017  -10.5167    1.5782 C.ar      1 <0>         0.2056
     29 O4         -2.2172  -11.3284    1.6877 O.3       1 <0>        -0.4902
     30 H4          1.0039    1.9031    0.0027 H         1 <0>         0.0718
     31 H5         -0.5459    1.8868   -0.8726 H         1 <0>         0.0703
     32 H6         -0.5289    1.8773    0.9072 H         1 <0>         0.0845
     33 H7          0.5293   -0.3651    0.8851 H         1 <0>         0.0675
     34 H8         -1.0205   -0.3814    0.0098 H         1 <0>         0.0649
     35 H9         -0.2327   -2.2547    0.4576 H         1 <0>         0.1432
     36 H10        -0.5876   -4.6733    1.1926 H         1 <0>         0.1503
     37 H11        -1.6634   -4.6066   -0.2226 H         1 <0>         0.1432
     38 H12         1.4256   -6.1870   -2.0436 H         1 <0>         0.1113
     39 H13         0.2699   -6.1597   -3.3972 H         1 <0>         0.1378
     40 H14         1.6753   -4.0233   -3.7914 H         1 <0>         0.1569
     41 H15        -0.3657   -8.4075   -2.7931 H         1 <0>         0.1615
     42 H16         0.6952   -8.4207   -1.3633 H         1 <0>         0.1113
     43 H17        -2.0856   -6.4671    1.2058 H         1 <0>         0.4559
     44 H18        -4.1571   -7.4147    0.5557 H         1 <0>         0.1246
     45 H19        -6.3728   -8.2230    1.2586 H         1 <0>         0.1387
     46 H20        -6.6260  -10.4960    2.1689 H         1 <0>         0.1433
     47 H21        -4.6628  -11.9656    2.3780 H         1 <0>         0.1475
     48 H22        -1.7565  -11.2570    2.5349 H         1 <0>         0.4171
     49 H23         0.4197   -6.6214    0.2658 H         1 <0>         0.4339
@<TRIPOS>BOND
     1    1    2 1
     2    1   30 1
     3    1   31 1
     4    1   32 1
     5    2    3 1
     6    2   33 1
     7    2   34 1
     8    3    4 1
     9    4   16 1
    10    4    5 2
    11    5    6 1
    12    5   35 1
    13    6    7 1
    14    6   13 1
    15    6    8 1
    16    8    9 1
    17    8   36 1
    18    8   37 1
    19    9   22 1
    20    9   10 1
    21    9   49 1
    22   10   11 1
    23   10   12 1
    24   10   18 1
    25   12   13 1
    26   12   38 1
    27   12   39 1
    28   13   14 1
    29   13   15 1
    30   15   16 2
    31   15   40 1
    32   16   17 1
    33   18   19 1
    34   18   41 1
    35   18   42 1
    36   19   20 1
    37   20   21 2
    38   20   22 1
    39   20   23 1
    40   22   43 1
    41   23   28 ar
    42   23   24 ar
    43   24   25 ar
    44   24   44 1
    45   25   26 ar
    46   25   45 1
    47   26   27 ar
    48   26   46 1
    49   27   28 ar
    50   27   47 1
    51   28   29 1
    52   29   48 1
@<TRIPOS>MOLECULE
ZINC39637524
   70    74     0     0     0
SMALL
USER_CHARGES

@<TRIPOS>ATOM
      1 C1         -4.3957   -1.8570    1.2361 C.3       1 <0>        -0.1512
      2 C2         -2.9023   -1.9791    0.9265 C.3       1 <0>        -0.0829
      3 H1         -2.7579   -2.6785    0.1031 H         1 <0>         0.0733
      4 C3         -2.3492   -0.6077    0.5338 C.3       1 <0>        -0.1196
      5 C4         -0.8558   -0.7297    0.2242 C.3       1 <0>        -0.1192
      6 C5         -0.1183   -1.2413    1.4632 C.3       1 <0>        -0.1299
      7 C6         -0.6714   -2.6127    1.8559 C.3       1 <0>         0.1501
      8 H2         -0.5270   -3.3121    1.0325 H         1 <0>         0.0913
      9 C7         -2.1648   -2.4907    2.1655 C.3       1 <0>        -0.0930
     10 H3         -2.3092   -1.7913    2.9890 H         1 <0>         0.0772
     11 C8         -2.7179   -3.8621    2.5583 C.3       1 <0>        -0.1486
     12 N1          0.0348   -3.1026    3.0423 N.am      1 <0>        -0.7247
     13 C9          1.2053   -3.7570    2.9075 C.2       1 <0>         0.5214
     14 O1          1.6740   -3.9402    1.8040 O.2       1 <0>        -0.5177
     15 C10         1.9318   -4.2609    4.1278 C.3       1 <0>        -0.1143
     16 H4          1.8171   -3.5590    4.9537 H         1 <0>         0.1102
     17 C11         3.4283   -4.4792    3.8112 C.3       1 <0>         0.0896
     18 N2          3.7971   -5.6988    4.5679 N.am      1 <0>        -0.6046
     19 C12         2.6222   -6.5915    4.4236 C.3       1 <0>         0.1082
     20 C13         1.4062   -5.6496    4.5285 C.3       1 <0>        -0.0735
     21 C14         0.3088   -6.0968    3.5675 C.3       1 <0>        -0.1497
     22 C15        -0.2384   -7.4534    4.0204 C.3       1 <0>        -0.0081
     23 N3         -0.7708   -7.3382    5.3834 N.4       1 <0>        -0.5041
     24 C16         0.3106   -6.9986    6.3162 C.3       1 <0>        -0.0113
     25 C17         0.8809   -5.6227    5.9606 C.3       1 <0>        -0.1337
     26 C18         4.9418   -5.9415    5.2365 C.2       1 <0>         0.5988
     27 O2          5.1293   -7.0289    5.7453 O.2       1 <0>        -0.5214
     28 C19         5.9724   -4.8817    5.3513 C.ar      1 <0>         0.1126
     29 C20         7.2041   -5.1856    5.9498 C.ar      1 <0>        -0.1286
     30 C21         8.1615   -4.2189    6.0611 C.ar      1 <0>        -0.0502
     31 C22         7.8721   -2.9344    5.5636 C.ar      1 <0>        -0.0819
     32 C23         8.8104   -1.8929    5.6444 C.ar      1 <0>        -0.0991
     33 C24         8.4957   -0.6633    5.1522 C.ar      1 <0>        -0.1001
     34 C25         7.2530   -0.4222    4.5677 C.ar      1 <0>        -0.0935
     35 C26         6.3193   -1.4064    4.4719 C.ar      1 <0>        -0.0919
     36 C27         6.6063   -2.6922    4.9693 C.ar      1 <0>         0.1218
     37 N4          5.7119   -3.6765    4.8835 N.ar      1 <0>        -0.4416
     38 H5         -4.5401   -1.1576    2.0596 H         1 <0>         0.0559
     39 H6         -4.9212   -1.4925    0.3534 H         1 <0>         0.0599
     40 H7         -4.7898   -2.8341    1.5159 H         1 <0>         0.0569
     41 H8         -2.8746   -0.2432   -0.3489 H         1 <0>         0.0685
     42 H9         -2.4936    0.0917    1.3573 H         1 <0>         0.0644
     43 H10        -0.7114   -1.4291   -0.5992 H         1 <0>         0.0653
     44 H11        -0.4618    0.2473   -0.0556 H         1 <0>         0.0691
     45 H12         0.9456   -1.3283    1.2427 H         1 <0>         0.0688
     46 H13        -0.2627   -0.5419    2.2867 H         1 <0>         0.0646
     47 H14        -2.5735   -4.5615    1.7348 H         1 <0>         0.0573
     48 H15        -2.1925   -4.2266    3.4409 H         1 <0>         0.0429
     49 H16        -3.7818   -3.7752    2.7788 H         1 <0>         0.0658
     50 H17        -0.3400   -2.9561    3.9249 H         1 <0>         0.3969
     51 H18         3.5715   -4.6373    2.7423 H         1 <0>         0.0942
     52 H19         4.0171   -3.6277    4.1524 H         1 <0>         0.1413
     53 H20         2.6379   -7.0873    3.4530 H         1 <0>         0.0855
     54 H21         2.6026   -7.3274    5.2275 H         1 <0>         0.0885
     55 H22        -0.4960   -5.3617    3.5669 H         1 <0>         0.1008
     56 H23         0.7203   -6.1876    2.5623 H         1 <0>         0.1236
     57 H24        -1.0342   -7.7676    3.3451 H         1 <0>         0.1388
     58 H25         0.5633   -8.1918    4.0049 H         1 <0>         0.1336
     59 H26        -1.4741   -6.6151    5.4084 H         1 <0>         0.4268
     60 H27        -0.0806   -6.9776    7.3334 H         1 <0>         0.1395
     61 H28         1.0992   -7.7478    6.2461 H         1 <0>         0.1343
     62 H29         1.6957   -5.3793    6.6425 H         1 <0>         0.1178
     63 H30         0.0967   -4.8705    6.0465 H         1 <0>         0.0958
     64 H31         7.3943   -6.1815    6.3218 H         1 <0>         0.1518
     65 H32         9.1156   -4.4340    6.5192 H         1 <0>         0.1513
     66 H33         9.7765   -2.0663    6.0950 H         1 <0>         0.1377
     67 H34         9.2186    0.1367    5.2155 H         1 <0>         0.1352
     68 H35         7.0280    0.5624    4.1852 H         1 <0>         0.1363
     69 H36         5.3617   -1.2027    4.0159 H         1 <0>         0.1372
     70 H37        -1.1853   -8.2166    5.6565 H         1 <0>         0.4341
@<TRIPOS>BOND
     1    1    2 1
     2    1   38 1
     3    1   39 1
     4    1   40 1
     5    2    3 1
     6    2    9 1
     7    2    4 1
     8    4    5 1
     9    4   41 1
    10    4   42 1
    11    5    6 1
    12    5   43 1
    13    5   44 1
    14    6    7 1
    15    6   45 1
    16    6   46 1
    17    7    8 1
    18    7    9 1
    19    7   12 1
    20    9   10 1
    21    9   11 1
    22   11   47 1
    23   11   48 1
    24   11   49 1
    25   12   13 am
    26   12   50 1
    27   13   14 2
    28   13   15 1
    29   15   16 1
    30   15   20 1
    31   15   17 1
    32   17   18 1
    33   17   51 1
    34   17   52 1
    35   18   19 1
    36   18   26 am
    37   19   20 1
    38   19   53 1
    39   19   54 1
    40   20   25 1
    41   20   21 1
    42   21   22 1
    43   21   55 1
    44   21   56 1
    45   22   23 1
    46   22   57 1
    47   22   58 1
    48   23   24 1
    49   23   59 1
    50   23   70 1
    51   24   25 1
    52   24   60 1
    53   24   61 1
    54   25   62 1
    55   25   63 1
    56   26   27 2
    57   26   28 1
    58   28   37 ar
    59   28   29 ar
    60   29   30 ar
    61   29   64 1
    62   30   31 ar
    63   30   65 1
    64   31   36 ar
    65   31   32 ar
    66   32   33 ar
    67   32   66 1
    68   33   34 ar
    69   33   67 1
    70   34   35 ar
    71   34   68 1
    72   35   36 ar
    73   35   69 1
    74   36   37 ar
@<TRIPOS>MOLECULE
ZINC45513264
   58    61     0     0     0
SMALL
USER_CHARGES

@<TRIPOS>ATOM
      1 C1         -0.6395    2.0523   -0.6496 C.3       1 <0>        -0.1622
      2 C2          0.0333    0.7239   -0.2985 C.3       1 <0>         0.1869
      3 H1         -0.7203    0.0136    0.0416 H         1 <0>         0.1077
      4 C3          1.0441    0.9468    0.7969 C.ar      1 <0>        -0.1200
      5 C4          2.2895    1.4639    0.4927 C.ar      1 <0>        -0.0873
      6 C5          3.2170    1.6692    1.4964 C.ar      1 <0>        -0.1481
      7 C6          2.8985    1.3567    2.8071 C.ar      1 <0>         0.1126
      8 C7          1.6508    0.8387    3.1106 C.ar      1 <0>        -0.1453
      9 C8          0.7230    0.6393    2.1059 C.ar      1 <0>        -0.0718
     10 F1          3.8046    1.5565    3.7891 F         1 <0>        -0.1312
     11 N1          0.7080    0.1897   -1.4841 N.am      1 <0>        -0.6988
     12 C9          0.0176   -0.5447   -2.3788 C.2       1 <0>         0.5042
     13 O1         -1.1622   -0.7634   -2.2023 O.2       1 <0>        -0.5153
     14 C10         0.7116   -1.0941   -3.5984 C.3       1 <0>         0.0053
     15 H2          1.4902   -0.4009   -3.9166 H         1 <0>         0.1580
     16 C11         1.3405   -2.4475   -3.2610 C.3       1 <0>        -0.1804
     17 N2         -0.2651   -1.2647   -4.6824 N.4       1 <0>        -0.3738
     18 C12         0.3992   -1.8589   -5.8486 C.3       1 <0>        -0.0041
     19 C13        -0.6300   -2.1135   -6.9519 C.3       1 <0>        -0.1658
     20 C14        -1.2787   -0.7857   -7.3536 C.3       1 <0>         0.1609
     21 C15        -1.9043   -0.1391   -6.1143 C.3       1 <0>        -0.1627
     22 C16        -0.8278    0.0424   -5.0420 C.3       1 <0>        -0.0038
     23 N3         -2.3188   -1.0320   -8.3555 N.am      1 <0>        -0.5377
     24 C17        -2.3451   -0.5127   -9.6477 C.ar      1 <0>         0.0792
     25 C18        -1.4937    0.3224  -10.3551 C.ar      1 <0>        -0.1046
     26 C19        -1.7965    0.6697  -11.6570 C.ar      1 <0>        -0.1030
     27 C20        -2.9467    0.1879  -12.2585 C.ar      1 <0>        -0.0990
     28 C21        -3.8009   -0.6440  -11.5618 C.ar      1 <0>        -0.0998
     29 C22        -3.5048   -0.9990  -10.2545 C.ar      1 <0>         0.0921
     30 N4         -4.1473   -1.7986   -9.3122 N.am      1 <0>        -0.6392
     31 H3         -4.9820   -2.2743   -9.4458 H         1 <0>         0.4400
     32 C23        -3.4092   -1.8034   -8.1861 C.2       1 <0>         0.6852
     33 O2         -3.6873   -2.4100   -7.1685 O.2       1 <0>        -0.5557
     34 H4          0.1142    2.7626   -0.9897 H         1 <0>         0.0651
     35 H5         -1.3705    1.8911   -1.4419 H         1 <0>         0.0650
     36 H6         -1.1414    2.4498    0.2325 H         1 <0>         0.0807
     37 H7          2.5379    1.7073   -0.5298 H         1 <0>         0.1284
     38 H8          4.1900    2.0729    1.2585 H         1 <0>         0.1416
     39 H9          1.4013    0.5943    4.1326 H         1 <0>         0.1438
     40 H10        -0.2518    0.2395    2.3430 H         1 <0>         0.1384
     41 H11         1.6516    0.3646   -1.6253 H         1 <0>         0.4084
     42 H12         1.8424   -2.8449   -4.1432 H         1 <0>         0.0995
     43 H13         2.0652   -2.3210   -2.4567 H         1 <0>         0.1120
     44 H14         0.5619   -3.1407   -2.9428 H         1 <0>         0.0921
     45 H15         1.1648   -1.1761   -6.2171 H         1 <0>         0.1357
     46 H16         0.8632   -2.8022   -5.5604 H         1 <0>         0.1431
     47 H17        -0.1344   -2.5530   -7.8176 H         1 <0>         0.1210
     48 H18        -1.3960   -2.7964   -6.5845 H         1 <0>         0.1090
     49 H19        -0.5213   -0.1208   -7.7686 H         1 <0>         0.1157
     50 H20        -2.3196    0.8327   -6.3813 H         1 <0>         0.1188
     51 H21        -2.6967   -0.7810   -5.7296 H         1 <0>         0.1100
     52 H22        -1.2698    0.5028   -4.1584 H         1 <0>         0.1377
     53 H23        -0.0361    0.6847   -5.4277 H         1 <0>         0.1328
     54 H24        -0.5960    0.7007   -9.8889 H         1 <0>         0.1286
     55 H25        -1.1335    1.3201  -12.2081 H         1 <0>         0.1386
     56 H26        -3.1770    0.4642  -13.2769 H         1 <0>         0.1400
     57 H27        -4.6976   -1.0173  -12.0341 H         1 <0>         0.1369
     58 H28        -1.0064   -1.8752   -4.3728 H         1 <0>         0.4344
@<TRIPOS>BOND
     1    1    2 1
     2    1   34 1
     3    1   35 1
     4    1   36 1
     5    2    3 1
     6    2    4 1
     7    2   11 1
     8    4    9 ar
     9    4    5 ar
    10    5    6 ar
    11    5   37 1
    12    6    7 ar
    13    6   38 1
    14    7    8 ar
    15    7   10 1
    16    8    9 ar
    17    8   39 1
    18    9   40 1
    19   11   12 am
    20   11   41 1
    21   12   13 2
    22   12   14 1
    23   14   15 1
    24   14   16 1
    25   14   17 1
    26   16   42 1
    27   16   43 1
    28   16   44 1
    29   17   22 1
    30   17   18 1
    31   17   58 1
    32   18   19 1
    33   18   45 1
    34   18   46 1
    35   19   20 1
    36   19   47 1
    37   19   48 1
    38   20   21 1
    39   20   23 1
    40   20   49 1
    41   21   22 1
    42   21   50 1
    43   21   51 1
    44   22   52 1
    45   22   53 1
    46   23   32 am
    47   23   24 1
    48   24   29 ar
    49   24   25 ar
    50   25   26 ar
    51   25   54 1
    52   26   27 ar
    53   26   55 1
    54   27   28 ar
    55   27   56 1
    56   28   29 ar
    57   28   57 1
    58   29   30 1
    59   30   31 1
    60   30   32 am
    61   32   33 2
@<TRIPOS>MOLECULE
ZINC64600388
   54    57     0     0     0
SMALL
USER_CHARGES

@<TRIPOS>ATOM
      1 C1         -0.0184    1.5028    0.0103 C.3       1 <0>        -0.1198
      2 C2          0.0021   -0.0041    0.0020 C.ar      1 <0>        -0.0313
      3 C3          0.0058   -0.6890   -1.1983 C.ar      1 <0>        -0.1609
      4 C4          0.0291   -2.0745   -1.2044 C.ar      1 <0>         0.1532
      5 C5          0.0463   -2.7805   -0.0061 C.ar      1 <0>        -0.1850
      6 C6          0.0358   -2.0926    1.1928 C.ar      1 <0>         0.1404
      7 C7          0.0228   -0.7009    1.1930 C.ar      1 <0>        -0.1420
      8 O1          0.0311   -2.7384    2.3909 O.3       1 <0>        -0.2977
      9 C8          0.2578   -4.0672    2.3831 C.2       1 <0>         0.4933
     10 O2          0.9501   -4.5960    3.2204 O.2       1 <0>        -0.4099
     11 C9         -0.3974   -4.8666    1.2744 C.3       1 <0>        -0.1141
     12 H1         -0.1033   -5.9135    1.3497 H         1 <0>         0.1286
     13 C10         0.0822   -4.2868   -0.0598 C.3       1 <0>        -0.0389
     14 H2         -0.5685   -4.6362   -0.8614 H         1 <0>         0.1132
     15 C11         1.5144   -4.7519   -0.3308 C.3       1 <0>        -0.1499
     16 C12        -1.9192   -4.7464    1.3772 C.3       1 <0>        -0.1346
     17 C13        -2.3885   -5.3890    2.6570 C.2       1 <0>         0.5113
     18 O3         -1.5849   -5.8934    3.4124 O.2       1 <0>        -0.5141
     19 N1         -3.7012   -5.4031    2.9620 N.am      1 <0>        -0.7353
     20 C14        -4.1575   -6.0277    4.2061 C.3       1 <0>         0.1250
     21 C15        -5.6793   -5.9075    4.3089 C.3       1 <0>        -0.1075
     22 C16        -6.1486   -6.5501    5.5887 C.2       1 <0>         0.0806
     23 C17        -6.3871   -5.9332    6.7684 C.ar      1 <0>        -0.1624
     24 C18        -6.2841   -4.5331    7.1968 C.ar      1 <0>        -0.0068
     25 C19        -6.5974   -4.2127    8.4738 C.ar      1 <0>        -0.0747
     26 C20        -7.0165   -5.1835    9.3957 C.ar      1 <0>         0.0538
     27 C21        -7.1353   -6.4893    9.0758 C.ar      1 <0>        -0.1884
     28 C22        -6.8322   -6.9379    7.7605 C.ar      1 <0>         0.3298
     29 N2         -6.8675   -8.1295    7.2152 N.pl3     1 <0>        -0.5771
     30 C23        -6.4546   -8.0142    5.8121 C.3       1 <0>         0.0594
     31 Cl1        -6.4769   -2.5579    8.9844 Cl        1 <0>        -0.0127
     32 O4          0.0346   -2.7461   -2.3857 O.3       1 <0>        -0.4913
     33 H3          1.0042    1.8801    0.0026 H         1 <0>         0.0805
     34 H4         -0.5455    1.8639   -0.8728 H         1 <0>         0.0750
     35 H5         -0.5286    1.8543    0.9071 H         1 <0>         0.0736
     36 H6         -0.0098   -0.1447   -2.1311 H         1 <0>         0.1385
     37 H7          0.0253   -0.1636    2.1299 H         1 <0>         0.1400
     38 H8          2.1677   -4.4006    0.4679 H         1 <0>         0.0559
     39 H9          1.5416   -5.8408   -0.3699 H         1 <0>         0.0730
     40 H10         1.8543   -4.3455   -1.2834 H         1 <0>         0.0673
     41 H11        -2.2015   -3.6936    1.3744 H         1 <0>         0.1064
     42 H12        -2.3815   -5.2488    0.5275 H         1 <0>         0.1200
     43 H13        -4.3439   -4.9996    2.3577 H         1 <0>         0.4078
     44 H14        -3.8752   -7.0805    4.2089 H         1 <0>         0.0802
     45 H15        -3.6951   -5.5253    5.0558 H         1 <0>         0.0797
     46 H16        -5.9616   -4.8547    4.3061 H         1 <0>         0.1179
     47 H17        -6.1417   -6.4099    3.4593 H         1 <0>         0.1225
     48 H18        -5.9628   -3.7700    6.5034 H         1 <0>         0.1703
     49 H19        -7.2535   -4.8733   10.4027 H         1 <0>         0.1712
     50 H20        -7.4619   -7.1976    9.8228 H         1 <0>         0.1715
     51 H21        -7.2616   -8.3342    5.1530 H         1 <0>         0.1802
     52 H22        -5.5630   -8.6157    5.6346 H         1 <0>         0.1792
     53 H23         0.9194   -2.9257   -2.7320 H         1 <0>         0.3965
     54 H24        -7.1271   -8.9496    7.6633 H         1 <0>         0.4586
@<TRIPOS>BOND
     1    1    2 1
     2    1   33 1
     3    1   34 1
     4    1   35 1
     5    2    7 ar
     6    2    3 ar
     7    3    4 ar
     8    3   36 1
     9    4    5 ar
    10    4   32 1
    11    5   13 1
    12    5    6 ar
    13    6    7 ar
    14    6    8 1
    15    7   37 1
    16    8    9 1
    17    9   10 2
    18    9   11 1
    19   11   12 1
    20   11   13 1
    21   11   16 1
    22   13   14 1
    23   13   15 1
    24   15   38 1
    25   15   39 1
    26   15   40 1
    27   16   17 1
    28   16   41 1
    29   16   42 1
    30   17   18 2
    31   17   19 am
    32   19   20 1
    33   19   43 1
    34   20   21 1
    35   20   44 1
    36   20   45 1
    37   21   22 1
    38   21   46 1
    39   21   47 1
    40   22   30 1
    41   22   23 2
    42   23   28 ar
    43   23   24 ar
    44   24   25 ar
    45   24   48 1
    46   25   26 ar
    47   25   31 1
    48   26   27 ar
    49   26   49 1
    50   27   28 ar
    51   27   50 1
    52   28   29 2
    53   29   30 1
    54   29   54 1
    55   30   51 1
    56   30   52 1
    57   32   53 1
@<TRIPOS>MOLECULE
ZINC04721345
   15    14     0     0     0
SMALL
USER_CHARGES
(Z)-4-chlorobut-2-en-1-amine
@<TRIPOS>ATOM
      1 C1          0.0360    1.0963    0.0381 C.3       1 <0>         0.0209
      2 C2         -0.6724    1.5757    1.2788 C.2       1 <0>        -0.2293
      3 C3         -1.1961    0.7092    2.1102 C.2       1 <0>        -0.0814
      4 C4         -0.9432   -0.7643    1.9210 C.3       1 <0>        -0.0469
      5 Cl1        -0.3166   -1.4687    3.4579 Cl        1 <0>        -0.1337
      6 H1         -0.0987    0.0195   -0.0640 H         1 <0>         0.1379
      7 H2          1.0991    1.3238    0.1159 H         1 <0>         0.1411
      8 H3         -0.7484    2.6336    1.4826 H         1 <0>         0.1475
      9 H4         -1.8090    1.0509    2.9311 H         1 <0>         0.1464
     10 H5         -1.8742   -1.2605    1.6470 H         1 <0>         0.1173
     11 H6         -0.2081   -0.9081    1.1292 H         1 <0>         0.1011
     12 H7         -0.0661    1.4690   -1.9841 H         1 <0>         0.4419
     13 H8         -1.5221    1.6311   -1.1968 H         1 <0>         0.4382
     14 N1         -0.5192    1.7977   -1.1330 N.4       1 <0>        -0.6422
     15 H9         -0.3527    2.8059   -1.0327 H         1 <0>         0.4413
@<TRIPOS>BOND
     1    1    2 1
     2    1    6 1
     3    1    7 1
     4    1   14 1
     5    2    3 2
     6    2    8 1
     7    3    4 1
     8    3    9 1
     9    4    5 1
    10    4   10 1
    11    4   11 1
    12   12   14 1
    13   13   14 1
    14   14   15 1
@<TRIPOS>MOLECULE
ZINC20442882
   22    22     0     0     0
SMALL
USER_CHARGES
(4R)-4-amino-1-methyl-piperidin-2-one
@<TRIPOS>ATOM
      1 C1         -0.0127    1.0858    0.0080 C.3       1 <0>         0.0741
      2 N1         -0.6984    1.5583    1.2133 N.am      1 <0>        -0.6084
      3 C2         -0.8185    2.9973    1.4112 C.3       1 <0>         0.1096
      4 C3         -1.9328    3.3066    2.4145 C.3       1 <0>        -0.1606
      5 C4         -1.7061    2.4580    3.6715 C.3       1 <0>         0.0384
      6 H1         -0.6979    2.6147    4.0827 H         1 <0>         0.1436
      7 C5         -1.9325    0.9879    3.3101 C.3       1 <0>        -0.1567
      8 C6         -1.1689    0.6448    2.0633 C.2       1 <0>         0.5130
      9 O1         -0.9692   -0.5257    1.8164 O.2       1 <0>        -0.5198
     10 N2         -2.6543    2.8617    4.7184 N.4       1 <0>        -0.6869
     11 H2          0.3156    1.9492   -0.5893 H         1 <0>         0.0846
     12 H3         -0.7014    0.4685   -0.5875 H         1 <0>         0.0720
     13 H4          0.8626    0.4849    0.2959 H         1 <0>         0.0730
     14 H5          0.1317    3.3949    1.7972 H         1 <0>         0.0829
     15 H6         -1.0556    3.4808    0.4520 H         1 <0>         0.1017
     16 H7         -1.9066    4.3753    2.6736 H         1 <0>         0.1117
     17 H8         -2.9074    3.0616    1.9672 H         1 <0>         0.1005
     18 H9         -1.5848    0.3496    4.1358 H         1 <0>         0.1269
     19 H10        -3.0049    0.8135    3.1384 H         1 <0>         0.1229
     20 H11        -2.4888    2.2511    5.6183 H         1 <0>         0.4617
     21 H12        -3.6831    2.7130    4.3585 H         1 <0>         0.4545
     22 H13        -2.5010    3.9233    4.9623 H         1 <0>         0.4610
@<TRIPOS>BOND
     1    1    2 1
     2    1   11 1
     3    1   12 1
     4    1   13 1
     5    2    8 am
     6    2    3 1
     7    3    4 1
     8    3   14 1
     9    3   15 1
    10    4    5 1
    11    4   16 1
    12    4   17 1
    13    5    6 1
    14    5    7 1
    15    5   10 1
    16    7    8 1
    17    7   18 1
    18    7   19 1
    19    8    9 2
    20   10   20 1
    21   10   21 1
    22   10   22 1
@<TRIPOS>MOLECULE
ZINC39087898
   25    25     0     0     0
SMALL
USER_CHARGES

@<TRIPOS>ATOM
      1 C1         -0.7454    1.4321    0.4065 C.3       1 <0>         0.0236
      2 O1         -0.8600    0.0280    0.6463 O.3       1 <0>        -0.3434
      3 C2         -1.1122   -0.7530   -0.4159 C.2       1 <0>         0.4340
      4 O2         -1.2317   -0.2608   -1.5129 O.2       1 <0>        -0.4800
      5 C3         -1.2463   -2.2437   -0.2401 C.3       1 <0>        -0.1030
      6 H1         -0.5739   -2.5981    0.5411 H         1 <0>         0.1544
      7 C4         -0.9636   -2.9771   -1.5759 C.3       1 <0>        -0.1196
      8 C5         -1.7335   -4.3084   -1.3917 C.3       1 <0>        -0.0960
      9 C6         -2.9981   -3.9147   -0.6492 C.2       1 <0>        -0.1807
     10 C7         -4.1315   -4.5716   -0.6436 C.2       1 <0>        -0.1101
     11 C8         -2.7056   -2.6217    0.0881 C.3       1 <0>         0.0783
     12 H2         -2.8200   -2.7681    1.1621 H         1 <0>         0.1631
     13 N1         -3.6143   -1.5642   -0.3745 N.4       1 <0>        -0.6403
     14 H3         -0.5416    1.9457    1.3461 H         1 <0>         0.1178
     15 H4          0.0705    1.6159   -0.2925 H         1 <0>         0.0742
     16 H5         -1.6777    1.8057   -0.0169 H         1 <0>         0.0677
     17 H6         -1.3611   -2.4129   -2.4196 H         1 <0>         0.0962
     18 H7          0.1038   -3.1604   -1.6991 H         1 <0>         0.1030
     19 H8         -1.9805   -4.7425   -2.3606 H         1 <0>         0.0986
     20 H9         -1.1460   -5.0089   -0.7983 H         1 <0>         0.0996
     21 H10        -4.2270   -5.4884   -1.2064 H         1 <0>         0.1354
     22 H11        -4.9703   -4.1965   -0.0760 H         1 <0>         0.1159
     23 H12        -3.4532   -1.3872   -1.3547 H         1 <0>         0.4392
     24 H13        -4.5698   -1.8586   -0.2385 H         1 <0>         0.4398
     25 H14        -3.4442   -0.7205    0.1521 H         1 <0>         0.4325
@<TRIPOS>BOND
     1    1    2 1
     2    1   14 1
     3    1   15 1
     4    1   16 1
     5    2    3 1
     6    3    4 2
     7    3    5 1
     8    5    6 1
     9    5   11 1
    10    5    7 1
    11    7    8 1
    12    7   17 1
    13    7   18 1
    14    8    9 1
    15    8   19 1
    16    8   20 1
    17    9   10 2
    18    9   11 1
    19   10   21 1
    20   10   22 1
    21   11   12 1
    22   11   13 1
    23   13   23 1
    24   13   24 1
    25   13   25 1
@<TRIPOS>MOLECULE
ZINC44410572
   17    16     0     0     0
SMALL
USER_CHARGES

@<TRIPOS>ATOM
      1 C1         -0.0187    1.5258    0.0104 C.3       1 <0>        -0.1854
      2 C2          0.0021   -0.0041    0.0020 C.3       1 <0>         0.0301
      3 H1          0.5293   -0.3651    0.8851 H         1 <0>         0.1466
      4 C3          0.7182   -0.4975   -1.2568 C.3       1 <0>        -0.1604
      5 C4          0.8493   -2.0210   -1.2049 C.3       1 <0>        -0.0678
      6 Cl1         1.6932   -2.6024   -2.6884 Cl        1 <0>        -0.1345
      7 N1         -1.3761   -0.5125    0.0124 N.4       1 <0>        -0.6403
      8 H2          1.0039    1.9031    0.0027 H         1 <0>         0.1095
      9 H3         -0.5459    1.8868   -0.8726 H         1 <0>         0.0847
     10 H4         -0.5289    1.8773    0.9072 H         1 <0>         0.0867
     11 H5          0.1430   -0.2121   -2.1375 H         1 <0>         0.1027
     12 H6          1.7103   -0.0491   -1.3098 H         1 <0>         0.1260
     13 H7          1.4245   -2.3064   -0.3242 H         1 <0>         0.1086
     14 H8         -0.1428   -2.4694   -1.1520 H         1 <0>         0.0861
     15 H9         -1.8641   -0.1783   -0.8050 H         1 <0>         0.4353
     16 H10        -1.3624   -1.5214    0.0069 H         1 <0>         0.4328
     17 H11        -1.8484   -0.1871    0.8426 H         1 <0>         0.4393
@<TRIPOS>BOND
     1    1    2 1
     2    1    8 1
     3    1    9 1
     4    1   10 1
     5    2    3 1
     6    2    4 1
     7    2    7 1
     8    4    5 1
     9    4   11 1
    10    4   12 1
    11    5    6 1
    12    5   13 1
    13    5   14 1
    14    7   15 1
    15    7   16 1
    16    7   17 1
@<TRIPOS>MOLECULE
ZINC34468160
   21    22     0     0     0
SMALL
USER_CHARGES

@<TRIPOS>ATOM
      1 C1         -0.0188    1.5368    0.0105 C.3       1 <0>        -0.1546
      2 C2          1.4648    1.9616   -0.0014 C.3       1 <0>        -0.0044
      3 N1          2.1899    0.8043    0.5809 N.4       1 <0>        -0.5181
      4 C3          1.5078   -0.3855    0.0142 C.3       1 <0>        -0.0086
      5 H1          1.8812   -0.6468   -0.9759 H         1 <0>         0.1604
      6 C4          0.0021   -0.0041    0.0020 C.3       1 <0>         0.0660
      7 H2         -0.5285   -0.4224   -0.8533 H         1 <0>         0.1436
      8 N2         -0.5184   -0.4960    1.3016 N.3       1 <0>        -0.6584
      9 C5          0.1746   -1.7918    1.5136 C.3       1 <0>         0.0362
     10 C6          1.6299   -1.5509    1.0151 C.3       1 <0>        -0.1768
     11 H3         -0.5099    1.9034    0.9119 H         1 <0>         0.1080
     12 H4         -0.5270    1.9130   -0.8774 H         1 <0>         0.1211
     13 H5          1.7995    2.1454   -1.0223 H         1 <0>         0.1385
     14 H6          1.6108    2.8500    0.6131 H         1 <0>         0.1388
     15 H7          3.1595    0.8201    0.3022 H         1 <0>         0.4341
     16 H8         -0.3071    0.1529    2.0447 H         1 <0>         0.3437
     17 H9          0.1734   -2.0550    2.5714 H         1 <0>         0.0975
     18 H10        -0.2994   -2.5773    0.9250 H         1 <0>         0.1019
     19 H11         2.0180   -2.4388    0.5160 H         1 <0>         0.1143
     20 H12         2.2772   -1.2697    1.8458 H         1 <0>         0.0898
     21 H13         2.1110    0.8094    1.5868 H         1 <0>         0.4268
@<TRIPOS>BOND
     1    1    6 1
     2    1    2 1
     3    1   11 1
     4    1   12 1
     5    2    3 1
     6    2   13 1
     7    2   14 1
     8    3    4 1
     9    3   15 1
    10    3   21 1
    11    4    5 1
    12    4   10 1
    13    4    6 1
    14    6    7 1
    15    6    8 1
    16    8    9 1
    17    8   16 1
    18    9   10 1
    19    9   17 1
    20    9   18 1
    21   10   19 1
    22   10   20 1
@<TRIPOS>MOLECULE
ZINC09195282
   74    76     0     0     0
SMALL
USER_CHARGES
1-(4-ethoxyphenyl)-3-hexylamino-1-(2-methoxyphenyl)-2-phenyl-propan-1-ol
@<TRIPOS>ATOM
      1 C1        -10.7865    1.7033   -2.6884 C.3       1 <0>        -0.1574
      2 C2         -9.7942    2.5892   -1.9325 C.3       1 <0>        -0.1265
      3 C3         -8.7466    1.7106   -1.2457 C.3       1 <0>        -0.1218
      4 C4         -7.7543    2.5965   -0.4898 C.3       1 <0>        -0.1180
      5 C5         -6.7068    1.7179    0.1969 C.3       1 <0>        -0.1499
      6 C6         -5.7144    2.6038    0.9528 C.3       1 <0>        -0.0068
      7 C7         -3.7367    2.5786    2.3495 C.3       1 <0>        -0.0117
      8 C8         -2.7078    1.6670    3.0211 C.3       1 <0>        -0.0965
      9 H1         -3.2223    0.9360    3.6448 H         1 <0>         0.1263
     10 C9         -1.9061    0.9507    1.9650 C.ar      1 <0>        -0.1162
     11 C10        -1.2690    1.6724    0.9730 C.ar      1 <0>        -0.1023
     12 C11        -0.5300    1.0157    0.0068 C.ar      1 <0>        -0.1139
     13 C12        -0.4357   -0.3633    0.0273 C.ar      1 <0>        -0.1027
     14 C13        -1.0771   -1.0853    1.0164 C.ar      1 <0>        -0.1143
     15 C14        -1.8125   -0.4283    1.9851 C.ar      1 <0>        -0.1046
     16 C15        -1.7705    2.5086    3.8895 C.3       1 <0>         0.2651
     17 C16        -2.5542    3.1331    5.0151 C.ar      1 <0>        -0.1724
     18 C17        -3.6743    2.4941    5.5138 C.ar      1 <0>        -0.0624
     19 C18        -4.3911    3.0617    6.5494 C.ar      1 <0>        -0.2153
     20 C19        -3.9925    4.2792    7.0817 C.ar      1 <0>         0.1471
     21 C20        -2.8715    4.9211    6.5758 C.ar      1 <0>        -0.1518
     22 C21        -2.1551    4.3468    5.5437 C.ar      1 <0>        -0.0524
     23 O1         -4.6992    4.8423    8.0968 O.3       1 <0>        -0.3125
     24 C22        -5.8421    4.1252    8.5675 C.3       1 <0>         0.0561
     25 C23        -6.5040    4.9089    9.7026 C.3       1 <0>        -0.1567
     26 C24        -0.6878    1.6286    4.4590 C.ar      1 <0>        -0.1056
     27 C25         0.6410    1.9491    4.2576 C.ar      1 <0>        -0.0508
     28 C26         1.6347    1.1394    4.7753 C.ar      1 <0>        -0.1541
     29 C27         1.3017    0.0095    5.4998 C.ar      1 <0>        -0.0706
     30 C28        -0.0252   -0.3127    5.7080 C.ar      1 <0>        -0.2056
     31 C29        -1.0244    0.4987    5.1898 C.ar      1 <0>         0.1397
     32 O2         -2.3307    0.1839    5.3933 O.3       1 <0>        -0.3205
     33 C30        -2.6043   -0.9340    6.2403 C.3       1 <0>         0.0204
     34 O3         -1.1788    3.5371    3.0932 O.3       1 <0>        -0.5356
     35 H2        -11.2800    1.0303   -1.9872 H         1 <0>         0.0551
     36 H3        -11.5328    2.3292   -3.1776 H         1 <0>         0.0588
     37 H4        -10.2537    1.1193   -3.4388 H         1 <0>         0.0553
     38 H5        -10.3270    3.1733   -1.1821 H         1 <0>         0.0632
     39 H6         -9.3007    3.2622   -2.6337 H         1 <0>         0.0634
     40 H7         -8.2138    1.1266   -1.9961 H         1 <0>         0.0659
     41 H8         -9.2401    1.0376   -0.5445 H         1 <0>         0.0656
     42 H9         -8.2871    3.1805    0.2606 H         1 <0>         0.0738
     43 H10        -7.2608    3.2695   -1.1910 H         1 <0>         0.0741
     44 H11        -6.1740    1.1339   -0.5535 H         1 <0>         0.0870
     45 H12        -7.2002    1.0449    0.8981 H         1 <0>         0.0869
     46 H13        -6.2472    3.1878    1.7032 H         1 <0>         0.1318
     47 H14        -5.2209    3.2768    0.2516 H         1 <0>         0.1317
     48 H15        -4.2558    3.1625    3.1096 H         1 <0>         0.1396
     49 H16        -3.2295    3.2514    1.6580 H         1 <0>         0.1340
     50 H17        -1.3458    2.7495    0.9547 H         1 <0>         0.1278
     51 H18        -0.0286    1.5798   -0.7658 H         1 <0>         0.1273
     52 H19         0.1395   -0.8766   -0.7291 H         1 <0>         0.1270
     53 H20        -1.0034   -2.1627    1.0325 H         1 <0>         0.1261
     54 H21        -2.3136   -0.9924    2.7578 H         1 <0>         0.1212
     55 H22        -3.9868    1.5484    5.0960 H         1 <0>         0.1285
     56 H23        -5.2633    2.5598    6.9417 H         1 <0>         0.1288
     57 H24        -2.5593    5.8691    6.9883 H         1 <0>         0.1351
     58 H25        -1.2823    4.8461    5.1495 H         1 <0>         0.1372
     59 H26        -6.5529    3.9981    7.7510 H         1 <0>         0.0616
     60 H27        -5.5315    3.1469    8.9344 H         1 <0>         0.0631
     61 H28        -7.3758    4.3619   10.0617 H         1 <0>         0.0822
     62 H29        -5.7932    5.0360   10.5191 H         1 <0>         0.0696
     63 H30        -6.8146    5.8872    9.3358 H         1 <0>         0.0687
     64 H31         0.9036    2.8308    3.6919 H         1 <0>         0.1386
     65 H32         2.6728    1.3894    4.6134 H         1 <0>         0.1272
     66 H33         2.0798   -0.6217    5.9029 H         1 <0>         0.1275
     67 H34        -0.2848   -1.1955    6.2732 H         1 <0>         0.1301
     68 H35        -3.6807   -1.0243    6.3865 H         1 <0>         0.1001
     69 H36        -2.1178   -0.7869    7.2046 H         1 <0>         0.0604
     70 H37        -2.2231   -1.8435    5.7761 H         1 <0>         0.0581
     71 H38        -1.8184    4.1426    2.6940 H         1 <0>         0.3743
     72 N1         -4.7085    1.7495    1.6117 N.4       1 <0>        -0.5155
     73 H39        -4.2131    1.1993    0.9003 H         1 <0>         0.4326
     74 H40        -5.1798    1.1156    2.2677 H         1 <0>         0.4304
@<TRIPOS>BOND
     1    1    2 1
     2    1   35 1
     3    1   36 1
     4    1   37 1
     5    2    3 1
     6    2   38 1
     7    2   39 1
     8    3    4 1
     9    3   40 1
    10    3   41 1
    11    4    5 1
    12    4   42 1
    13    4   43 1
    14    5    6 1
    15    5   44 1
    16    5   45 1
    17    6   46 1
    18    6   47 1
    19    6   72 1
    20    7    8 1
    21    7   48 1
    22    7   49 1
    23    7   72 1
    24    8    9 1
    25    8   10 1
    26    8   16 1
    27   10   15 ar
    28   10   11 ar
    29   11   12 ar
    30   11   50 1
    31   12   13 ar
    32   12   51 1
    33   13   14 ar
    34   13   52 1
    35   14   15 ar
    36   14   53 1
    37   15   54 1
    38   16   17 1
    39   16   26 1
    40   16   34 1
    41   17   22 ar
    42   17   18 ar
    43   18   19 ar
    44   18   55 1
    45   19   20 ar
    46   19   56 1
    47   20   21 ar
    48   20   23 1
    49   21   22 ar
    50   21   57 1
    51   22   58 1
    52   23   24 1
    53   24   25 1
    54   24   59 1
    55   24   60 1
    56   25   61 1
    57   25   62 1
    58   25   63 1
    59   26   31 ar
    60   26   27 ar
    61   27   28 ar
    62   27   64 1
    63   28   29 ar
    64   28   65 1
    65   29   30 ar
    66   29   66 1
    67   30   31 ar
    68   30   67 1
    69   31   32 1
    70   32   33 1
    71   33   68 1
    72   33   69 1
    73   33   70 1
    74   34   71 1
    75   72   73 1
    76   72   74 1
@<TRIPOS>MOLECULE
ZINC28919631
   56    58     0     0     0
SMALL
USER_CHARGES
1-[4-[(2S)-2-hydroxy-3-[[(1R)-1-(2-naphthyl)ethyl]amino]propoxy]phenyl]propan-1-one
@<TRIPOS>ATOM
      1 C1          2.4566    1.0016   -0.0160 C.3       1 <0>        -0.1491
      2 C2          1.2803    1.9799    0.0005 C.3       1 <0>        -0.1710
      3 C3         -0.0144    1.2087    0.0087 C.2       1 <0>         0.3935
      4 O1          0.0021   -0.0041    0.0020 O.2       1 <0>        -0.4472
      5 C4         -1.2960    1.9257    0.0187 C.ar      1 <0>        -0.2011
      6 C5         -1.3178    3.3258    0.0322 C.ar      1 <0>        -0.0303
      7 C6         -2.5171    3.9904    0.0366 C.ar      1 <0>        -0.2226
      8 C7         -3.7106    3.2763    0.0380 C.ar      1 <0>         0.1539
      9 C8         -3.6945    1.8856    0.0303 C.ar      1 <0>        -0.1568
     10 C9         -2.5006    1.2115    0.0205 C.ar      1 <0>        -0.0189
     11 O2         -4.8946    3.9386    0.0472 O.3       1 <0>        -0.2990
     12 C10        -4.8392    5.3665    0.0547 C.3       1 <0>         0.0622
     13 C11        -6.2608    5.9320    0.0646 C.3       1 <0>         0.0969
     14 H1         -6.8706    5.4923   -0.7384 H         1 <0>         0.0934
     15 C12        -6.2041    7.4564   -0.0531 C.3       1 <0>        -0.0371
     16 N1         -7.5690    7.9994   -0.0437 N.4       1 <0>        -0.5390
     17 C13        -7.5537    9.4641   -0.1553 C.3       1 <0>         0.0912
     18 H2         -6.7229    9.7400   -0.8214 H         1 <0>         0.1404
     19 C14        -7.3697   10.0795    1.2333 C.3       1 <0>        -0.1796
     20 C15        -8.8574    9.9365   -0.7454 C.ar      1 <0>        -0.1485
     21 C16       -10.0483    9.3259   -0.3562 C.ar      1 <0>        -0.1417
     22 C17       -11.2431    9.7321   -0.8657 C.ar      1 <0>        -0.0724
     23 C18       -11.2791   10.7748   -1.8073 C.ar      1 <0>        -0.0425
     24 C19       -12.4930   11.2169   -2.3605 C.ar      1 <0>        -0.1095
     25 C20       -12.4894   12.2296   -3.2697 C.ar      1 <0>        -0.0954
     26 C21       -11.2980   12.8366   -3.6630 C.ar      1 <0>        -0.0998
     27 C22       -10.1037   12.4346   -3.1489 C.ar      1 <0>        -0.1067
     28 C23       -10.0677   11.3920   -2.2072 C.ar      1 <0>        -0.0529
     29 C24        -8.8537   10.9492   -1.6545 C.ar      1 <0>        -0.0563
     30 O3         -6.9080    5.5724    1.2867 O.3       1 <0>        -0.5684
     31 H3          3.4016    1.5646   -0.0220 H         1 <0>         0.0646
     32 H4          2.3983    0.3733   -0.9170 H         1 <0>         0.0623
     33 H5          2.4155    0.3636    0.8792 H         1 <0>         0.0624
     34 H6          1.3386    2.6082    0.9015 H         1 <0>         0.0994
     35 H7          1.3214    2.6179   -0.8946 H         1 <0>         0.0993
     36 H8         -0.3915    3.8812    0.0354 H         1 <0>         0.1387
     37 H9         -2.5351    5.0702    0.0426 H         1 <0>         0.1317
     38 H10        -4.6241    1.3358    0.0317 H         1 <0>         0.1400
     39 H11        -2.4892    0.1315    0.0138 H         1 <0>         0.1452
     40 H12        -4.3025    5.7079    0.9522 H         1 <0>         0.0849
     41 H13        -4.3111    5.7177   -0.8441 H         1 <0>         0.0916
     42 H14        -5.6395    7.8690    0.7960 H         1 <0>         0.1431
     43 H15        -5.7058    7.7333   -0.9939 H         1 <0>         0.1439
     44 H16        -8.1336    7.5869   -0.8929 H         1 <0>         0.4531
     45 H17        -7.3582   11.1763    1.1497 H         1 <0>         0.1081
     46 H18        -6.4181    9.7346    1.6640 H         1 <0>         0.0831
     47 H19        -8.2005    9.7700    1.8845 H         1 <0>         0.0856
     48 H20       -10.0230    8.5213    0.3638 H         1 <0>         0.1189
     49 H21       -12.1583    9.2522   -0.5520 H         1 <0>         0.1384
     50 H22       -13.4240   10.7559   -2.0651 H         1 <0>         0.1358
     51 H23       -13.4237   12.5677   -3.6930 H         1 <0>         0.1341
     52 H24       -11.3229   13.6378   -4.3868 H         1 <0>         0.1338
     53 H25        -9.1885   12.9144   -3.4628 H         1 <0>         0.1343
     54 H26        -7.9227   11.4105   -1.9495 H         1 <0>         0.1363
     55 H27        -7.9434    5.8922    1.4755 H         1 <0>         0.4042
     56 H28        -8.0673    7.7225    0.8971 H         1 <0>         0.4412
@<TRIPOS>BOND
     1    1    2 1
     2    1   31 1
     3    1   32 1
     4    1   33 1
     5    2    3 1
     6    2   34 1
     7    2   35 1
     8    3    4 2
     9    3    5 1
    10    5   10 ar
    11    5    6 ar
    12    6    7 ar
    13    6   36 1
    14    7    8 ar
    15    7   37 1
    16    8    9 ar
    17    8   11 1
    18    9   10 ar
    19    9   38 1
    20   10   39 1
    21   11   12 1
    22   12   13 1
    23   12   40 1
    24   12   41 1
    25   13   14 1
    26   13   15 1
    27   13   30 1
    28   15   16 1
    29   15   42 1
    30   15   43 1
    31   16   17 1
    32   16   44 1
    33   16   56 1
    34   17   18 1
    35   17   19 1
    36   17   20 1
    37   19   45 1
    38   19   46 1
    39   19   47 1
    40   20   29 ar
    41   20   21 ar
    42   21   22 ar
    43   21   48 1
    44   22   23 ar
    45   22   49 1
    46   23   28 ar
    47   23   24 ar
    48   24   25 ar
    49   24   50 1
    50   25   26 ar
    51   25   51 1
    52   26   27 ar
    53   26   52 1
    54   27   28 ar
    55   27   53 1
    56   28   29 ar
    57   29   54 1
    58   30   55 1
@<TRIPOS>MOLECULE
ZINC39533305
   64    66     0     0     0
SMALL
USER_CHARGES

@<TRIPOS>ATOM
      1 C1         -0.0913    1.6896    0.0492 C.3       1 <0>        -0.1522
      2 C2         -0.1971    0.1700    0.1928 C.3       1 <0>        -0.0882
      3 C3          0.4723   -0.2669    1.4973 C.3       1 <0>        -0.1513
      4 C4         -1.6714   -0.2387    0.2142 C.3       1 <0>        -0.0847
      5 C5         -2.3007    0.0807   -1.1173 C.ar      1 <0>        -0.0625
      6 C6         -2.8802    1.3177   -1.3289 C.ar      1 <0>        -0.1102
      7 C7         -3.4575    1.6108   -2.5503 C.ar      1 <0>        -0.1042
      8 C8         -3.4547    0.6669   -3.5603 C.ar      1 <0>        -0.0877
      9 C9         -2.8743   -0.5697   -3.3490 C.ar      1 <0>        -0.1005
     10 C10        -2.2933   -0.8612   -2.1291 C.ar      1 <0>        -0.1175
     11 C11        -4.0849    0.9861   -4.8915 C.3       1 <0>         0.1424
     12 H1         -4.2405    2.0619   -4.9712 H         1 <0>         0.0967
     13 C12        -5.4303    0.2663   -5.0045 C.3       1 <0>         0.0153
     14 N1         -6.0161    0.5279   -6.3260 N.3       1 <0>        -0.5231
     15 O1         -7.3065   -0.1462   -6.4702 O.3       1 <0>        -0.2419
     16 C13        -7.9348    0.0659   -7.7361 C.3       1 <0>         0.0264
     17 N2         -3.1976    0.5382   -5.9732 N.3       1 <0>        -0.5208
     18 C14        -3.2673    1.4505   -7.1234 C.3       1 <0>         0.0212
     19 C15        -2.2869    0.9832   -8.2015 C.3       1 <0>        -0.0003
     20 N3         -2.6304   -0.3832   -8.6168 N.4       1 <0>        -0.5065
     21 C16        -2.5324   -1.2868   -7.4630 C.3       1 <0>         0.0395
     22 H2         -1.5174   -1.2612   -7.0666 H         1 <0>         0.1445
     23 C17        -3.5149   -0.8384   -6.3788 C.3       1 <0>         0.0071
     24 C18        -2.8728   -2.7126   -7.9015 C.3       1 <0>        -0.0971
     25 C19        -1.8337   -3.1993   -8.8784 C.ar      1 <0>        -0.1235
     26 C20        -2.0039   -2.9835  -10.2331 C.ar      1 <0>        -0.1418
     27 C21        -1.0507   -3.4299  -11.1292 C.ar      1 <0>        -0.1079
     28 C22         0.0729   -4.0918  -10.6706 C.ar      1 <0>        -0.1051
     29 C23         0.2436   -4.3068   -9.3157 C.ar      1 <0>        -0.1054
     30 C24        -0.7075   -3.8565   -8.4193 C.ar      1 <0>        -0.1042
     31 H3          0.9590    1.9808    0.0339 H         1 <0>         0.0552
     32 H4         -0.5682    2.0008   -0.8802 H         1 <0>         0.0564
     33 H5         -0.5892    2.1697    0.8916 H         1 <0>         0.0556
     34 H6          0.3008   -0.3101   -0.6496 H         1 <0>         0.0690
     35 H7         -0.0257    0.2132    2.3397 H         1 <0>         0.0570
     36 H8          0.3968   -1.3494    1.5996 H         1 <0>         0.0558
     37 H9          1.5225    0.0243    1.4821 H         1 <0>         0.0578
     38 H10        -1.7489   -1.3091    0.4053 H         1 <0>         0.0747
     39 H11        -2.1890    0.3093    1.0015 H         1 <0>         0.0756
     40 H12        -2.8824    2.0551   -0.5398 H         1 <0>         0.1256
     41 H13        -3.9109    2.5770   -2.7154 H         1 <0>         0.1212
     42 H14        -2.8725   -1.3072   -4.1380 H         1 <0>         0.1197
     43 H15        -1.8366   -1.8261   -1.9652 H         1 <0>         0.1228
     44 H16        -5.2803   -0.8060   -4.8794 H         1 <0>         0.0981
     45 H17        -6.1041    0.6318   -4.2296 H         1 <0>         0.0657
     46 H18        -6.1053    1.5191   -6.4922 H         1 <0>         0.3344
     47 H19        -8.1109    1.1319   -7.8802 H         1 <0>         0.0463
     48 H20        -7.2871   -0.3059   -8.5300 H         1 <0>         0.0472
     49 H21        -8.8856   -0.4664   -7.7635 H         1 <0>         0.1013
     50 H22        -4.2797    1.4496   -7.5275 H         1 <0>         0.0724
     51 H23        -3.0035    2.4588   -6.8044 H         1 <0>         0.1201
     52 H24        -2.3473    1.6503   -9.0613 H         1 <0>         0.1373
     53 H25        -1.2731    0.9972   -7.8013 H         1 <0>         0.1379
     54 H26        -3.5731   -0.3982   -8.9765 H         1 <0>         0.4229
     55 H27        -3.4317   -1.4999   -5.5165 H         1 <0>         0.1216
     56 H28        -4.5313   -0.8770   -6.7706 H         1 <0>         0.1027
     57 H29        -2.8870   -3.3671   -7.0300 H         1 <0>         0.1200
     58 H30        -3.8527   -2.7218   -8.3787 H         1 <0>         0.0976
     59 H31        -2.8817   -2.4664  -10.5915 H         1 <0>         0.1202
     60 H32        -1.1840   -3.2620  -12.1877 H         1 <0>         0.1308
     61 H33         0.8173   -4.4412  -11.3707 H         1 <0>         0.1315
     62 H34         1.1212   -4.8241   -8.9574 H         1 <0>         0.1320
     63 H35        -0.5724   -4.0212   -7.3605 H         1 <0>         0.1295
     64 H36        -1.9915   -0.6864   -9.3365 H         1 <0>         0.4273
@<TRIPOS>BOND
     1    1    2 1
     2    1   31 1
     3    1   32 1
     4    1   33 1
     5    2    3 1
     6    2    4 1
     7    2   34 1
     8    3   35 1
     9    3   36 1
    10    3   37 1
    11    4    5 1
    12    4   38 1
    13    4   39 1
    14    5   10 ar
    15    5    6 ar
    16    6    7 ar
    17    6   40 1
    18    7    8 ar
    19    7   41 1
    20    8    9 ar
    21    8   11 1
    22    9   10 ar
    23    9   42 1
    24   10   43 1
    25   11   12 1
    26   11   13 1
    27   11   17 1
    28   13   14 1
    29   13   44 1
    30   13   45 1
    31   14   15 1
    32   14   46 1
    33   15   16 1
    34   16   47 1
    35   16   48 1
    36   16   49 1
    37   17   23 1
    38   17   18 1
    39   18   19 1
    40   18   50 1
    41   18   51 1
    42   19   20 1
    43   19   52 1
    44   19   53 1
    45   20   21 1
    46   20   54 1
    47   20   64 1
    48   21   22 1
    49   21   23 1
    50   21   24 1
    51   23   55 1
    52   23   56 1
    53   24   25 1
    54   24   57 1
    55   24   58 1
    56   25   30 ar
    57   25   26 ar
    58   26   27 ar
    59   26   59 1
    60   27   28 ar
    61   27   60 1
    62   28   29 ar
    63   28   61 1
    64   29   30 ar
    65   29   62 1
    66   30   63 1
@<TRIPOS>MOLECULE
ZINC44960936
   72    76     0     0     0
SMALL
USER_CHARGES

@<TRIPOS>ATOM
      1 C1         -0.0184    1.5028    0.0103 C.3       1 <0>        -0.1114
      2 C2          0.0021   -0.0041    0.0020 C.ar      1 <0>        -0.1084
      3 C3          0.0057   -0.6859   -1.2073 C.ar      1 <0>        -0.0971
      4 C4          0.0243   -2.0629   -1.2365 C.ar      1 <0>        -0.1245
      5 C5          0.0399   -2.7801   -0.0449 C.ar      1 <0>         0.0919
      6 C6          0.0365   -2.0844    1.1795 C.ar      1 <0>        -0.0906
      7 C7          0.0226   -0.6878    1.1844 C.ar      1 <0>        -0.0754
      8 C8          0.0548   -3.1080    2.2194 C.2       1 <0>        -0.1722
      9 C9          0.0683   -4.3060    1.6044 C.2       1 <0>         0.0823
     10 N1          0.0596   -4.1260    0.2500 N.pl3     1 <0>        -0.5883
     11 H1          0.0659   -4.8398   -0.4066 H         1 <0>         0.4145
     12 C10         0.0909   -5.6258    2.3409 C.3       1 <0>        -0.0540
     13 C11         0.5165   -5.3672    3.7905 C.3       1 <0>        -0.1213
     14 C12        -0.3324   -4.2366    4.3787 C.3       1 <0>         0.1467
     15 H2         -1.3872   -4.4399    4.1943 H         1 <0>         0.0924
     16 C13         0.0573   -2.9108    3.7134 C.3       1 <0>        -0.0467
     17 N2         -0.0965   -4.1481    5.8219 N.am      1 <0>        -0.7273
     18 C14        -0.7909   -4.9348    6.6677 C.2       1 <0>         0.5150
     19 O1         -1.6111   -5.7159    6.2341 O.2       1 <0>        -0.5304
     20 C15        -0.5483   -4.8438    8.1523 C.3       1 <0>        -0.1029
     21 C16        -1.4448   -5.8206    8.8686 C.ar      1 <0>        -0.0927
     22 C17        -2.7054   -5.4276    9.2786 C.ar      1 <0>        -0.0620
     23 C18        -3.5290   -6.3211    9.9359 C.ar      1 <0>        -0.1428
     24 C19        -3.0904   -7.6136   10.1840 C.ar      1 <0>         0.1204
     25 C20        -1.8252   -8.0055    9.7712 C.ar      1 <0>        -0.2046
     26 C21        -1.0074   -7.1099    9.1097 C.ar      1 <0>        -0.0642
     27 O2         -3.8985   -8.4942   10.8308 O.3       1 <0>        -0.3142
     28 C22        -3.3811   -9.8078   11.0520 C.3       1 <0>         0.0633
     29 C23        -4.4252  -10.6500   11.7877 C.3       1 <0>        -0.1507
     30 C24        -3.8712  -12.0564   12.0245 C.3       1 <0>        -0.0058
     31 N3         -4.8738  -12.8651   12.7308 N.4       1 <0>        -0.3815
     32 C25        -5.1043  -12.2995   14.0656 C.3       1 <0>        -0.0137
     33 C26        -6.2061  -13.0895   14.7751 C.3       1 <0>        -0.1460
     34 C27        -5.7737  -14.5527   14.9066 C.3       1 <0>        -0.1398
     35 C28        -5.4642  -15.1105   13.5144 C.3       1 <0>        -0.1465
     36 C29        -4.3899  -14.2456   12.8516 C.3       1 <0>        -0.0065
     37 H3          1.0042    1.8801    0.0026 H         1 <0>         0.0682
     38 H4         -0.5455    1.8639   -0.8728 H         1 <0>         0.0654
     39 H5         -0.5286    1.8543    0.9071 H         1 <0>         0.0642
     40 H6         -0.0066   -0.1314   -2.1340 H         1 <0>         0.1264
     41 H7          0.0264   -2.5843   -2.1823 H         1 <0>         0.1206
     42 H8          0.0244   -0.1497    2.1208 H         1 <0>         0.1202
     43 H9         -0.9039   -6.0709    2.3253 H         1 <0>         0.0853
     44 H10         0.8038   -6.2988    1.8646 H         1 <0>         0.0819
     45 H11         0.3722   -6.2735    4.3786 H         1 <0>         0.0761
     46 H12         1.5683   -5.0821    3.8149 H         1 <0>         0.0717
     47 H13         1.0535   -2.6149    4.0422 H         1 <0>         0.0763
     48 H14        -0.6646   -2.1397    3.9824 H         1 <0>         0.0782
     49 H15         0.5595   -3.5233    6.1687 H         1 <0>         0.4023
     50 H16         0.4935   -5.0830    8.3655 H         1 <0>         0.1048
     51 H17        -0.7662   -3.8321    8.4947 H         1 <0>         0.1063
     52 H18        -3.0464   -4.4213    9.0852 H         1 <0>         0.1318
     53 H19        -4.5133   -6.0134   10.2566 H         1 <0>         0.1324
     54 H20        -1.4814   -9.0112    9.9632 H         1 <0>         0.1245
     55 H21        -0.0242   -7.4158    8.7842 H         1 <0>         0.1255
     56 H22        -3.1485  -10.2728   10.0940 H         1 <0>         0.0721
     57 H23        -2.4750   -9.7446   11.6546 H         1 <0>         0.0717
     58 H24        -4.6578  -10.1850   12.7457 H         1 <0>         0.0990
     59 H25        -5.3313  -10.7131   11.1850 H         1 <0>         0.0991
     60 H26        -3.6387  -12.5214   11.0665 H         1 <0>         0.1350
     61 H27        -2.9652  -11.9932   12.6272 H         1 <0>         0.1332
     62 H28        -4.1846  -12.3566   14.6477 H         1 <0>         0.1293
     63 H29        -5.4089  -11.2573   13.9704 H         1 <0>         0.1323
     64 H30        -6.3746  -12.6692   15.7666 H         1 <0>         0.1125
     65 H31        -7.1265  -13.0329   14.1939 H         1 <0>         0.0880
     66 H32        -4.8820  -14.6146   15.5305 H         1 <0>         0.0818
     67 H33        -6.5783  -15.1312   15.3605 H         1 <0>         0.0946
     68 H34        -5.1024  -16.1347   13.6048 H         1 <0>         0.1128
     69 H35        -6.3692  -15.0958   12.9070 H         1 <0>         0.0880
     70 H36        -4.1671  -14.6400   11.8602 H         1 <0>         0.1306
     71 H37        -3.4854  -14.2612   13.4596 H         1 <0>         0.1289
     72 H38        -5.7382  -12.8570   12.2105 H         1 <0>         0.4238
@<TRIPOS>BOND
     1    1    2 1
     2    1   37 1
     3    1   38 1
     4    1   39 1
     5    2    7 ar
     6    2    3 ar
     7    3    4 ar
     8    3   40 1
     9    4    5 ar
    10    4   41 1
    11    5   10 1
    12    5    6 ar
    13    6    7 ar
    14    6    8 1
    15    7   42 1
    16    8   16 1
    17    8    9 2
    18    9   10 1
    19    9   12 1
    20   10   11 1
    21   12   13 1
    22   12   43 1
    23   12   44 1
    24   13   14 1
    25   13   45 1
    26   13   46 1
    27   14   15 1
    28   14   16 1
    29   14   17 1
    30   16   47 1
    31   16   48 1
    32   17   18 am
    33   17   49 1
    34   18   19 2
    35   18   20 1
    36   20   21 1
    37   20   50 1
    38   20   51 1
    39   21   26 ar
    40   21   22 ar
    41   22   23 ar
    42   22   52 1
    43   23   24 ar
    44   23   53 1
    45   24   25 ar
    46   24   27 1
    47   25   26 ar
    48   25   54 1
    49   26   55 1
    50   27   28 1
    51   28   29 1
    52   28   56 1
    53   28   57 1
    54   29   30 1
    55   29   58 1
    56   29   59 1
    57   30   31 1
    58   30   60 1
    59   30   61 1
    60   31   36 1
    61   31   32 1
    62   31   72 1
    63   32   33 1
    64   32   62 1
    65   32   63 1
    66   33   34 1
    67   33   64 1
    68   33   65 1
    69   34   35 1
    70   34   66 1
    71   34   67 1
    72   35   36 1
    73   35   68 1
    74   35   69 1
    75   36   70 1
    76   36   71 1
@<TRIPOS>MOLECULE
ZINC61555497
   39    40     0     0     0
SMALL
USER_CHARGES

@<TRIPOS>ATOM
      1 C1          0.0168    1.3062    0.0139 C.2       1 <0>        -0.1277
      2 C2          1.3660    1.7287   -0.0006 C.2       1 <0>        -0.1831
      3 C3          2.1223    0.6165   -0.0236 C.2       1 <0>         0.0541
      4 O1          1.3074   -0.4510   -0.0237 O.3       1 <0>        -0.1587
      5 C4          0.0294   -0.0387   -0.0010 C.2       1 <0>        -0.1073
      6 C5         -1.1847   -0.9316    0.0070 C.3       1 <0>         0.0959
      7 N1         -1.5993   -1.2065   -1.3752 N.4       1 <0>        -0.5001
      8 C6         -2.7827   -2.0768   -1.3675 C.3       1 <0>        -0.0260
      9 C7         -3.2081   -2.3589   -2.7854 C.2       1 <0>         0.5046
     10 O2         -2.5866   -1.8819   -3.7113 O.2       1 <0>        -0.5050
     11 N2         -4.2792   -3.1413   -3.0246 N.am      1 <0>        -0.6412
     12 C8         -4.7311   -3.3281   -4.3380 C.ar      1 <0>         0.1071
     13 C9         -3.8217   -3.3764   -5.3856 C.ar      1 <0>        -0.0684
     14 C10        -4.2678   -3.5601   -6.6803 C.ar      1 <0>        -0.1130
     15 C11        -5.6216   -3.6967   -6.9353 C.ar      1 <0>         0.1058
     16 C12        -6.5337   -3.6491   -5.8923 C.ar      1 <0>         0.0569
     17 C13        -6.0900   -3.4709   -4.5926 C.ar      1 <0>         0.0840
     18 F1         -6.9770   -3.4304   -3.5744 F         1 <0>        -0.1116
     19 F2         -7.8545   -3.7818   -6.1431 F         1 <0>        -0.1036
     20 F3         -6.0546   -3.8762   -8.2024 F         1 <0>        -0.1073
     21 C14         3.6286    0.5754   -0.0459 C.3       1 <0>        -0.0273
     22 S1          4.2578    0.5405    1.6551 S.3       1 <0>        -0.2099
     23 C15         6.0601    0.4931    1.4555 C.3       1 <0>         0.2915
     24 F4          6.4198   -0.6521    0.7369 F         1 <0>        -0.1813
     25 F5          6.4824    1.6315    0.7605 F         1 <0>        -0.1798
     26 H1         -0.8563    1.9415    0.0373 H         1 <0>         0.1683
     27 H2          1.7212    2.7486    0.0049 H         1 <0>         0.1699
     28 H3         -0.9427   -1.8694    0.5071 H         1 <0>         0.1530
     29 H4         -1.9970   -0.4355    0.5382 H         1 <0>         0.1645
     30 H5         -1.8233   -0.3384   -1.8382 H         1 <0>         0.4384
     31 H6         -2.5408   -3.0146   -0.8673 H         1 <0>         0.1718
     32 H7         -3.5951   -1.5808   -0.8363 H         1 <0>         0.1725
     33 H8         -4.7372   -3.5750   -2.2878 H         1 <0>         0.4277
     34 H9         -2.7651   -3.2700   -5.1887 H         1 <0>         0.1668
     35 H10        -3.5594   -3.5968   -7.4946 H         1 <0>         0.1664
     36 H11         3.9599   -0.3186   -0.5742 H         1 <0>         0.1184
     37 H12         4.0087    1.4606   -0.5558 H         1 <0>         0.1331
     38 H13         6.5339    0.4700    2.4368 H         1 <0>         0.1620
     39 H14        -0.8474   -1.6657   -1.8669 H         1 <0>         0.4388
@<TRIPOS>BOND
     1    1    5 2
     2    1    2 1
     3    1   26 1
     4    2    3 2
     5    2   27 1
     6    3    4 1
     7    3   21 1
     8    4    5 1
     9    5    6 1
    10    6    7 1
    11    6   28 1
    12    6   29 1
    13    7    8 1
    14    7   30 1
    15    7   39 1
    16    8    9 1
    17    8   31 1
    18    8   32 1
    19    9   10 2
    20    9   11 am
    21   11   12 1
    22   11   33 1
    23   12   17 ar
    24   12   13 ar
    25   13   14 ar
    26   13   34 1
    27   14   15 ar
    28   14   35 1
    29   15   16 ar
    30   15   20 1
    31   16   17 ar
    32   16   19 1
    33   17   18 1
    34   21   22 1
    35   21   36 1
    36   21   37 1
    37   22   23 1
    38   23   24 1
    39   23   25 1
    40   23   38 1
@<TRIPOS>MOLECULE
ZINC02652701
   56    59     0     0     0
SMALL
USER_CHARGES
1-[2-(1H-indol-3-yl)-2-phenyl-ethyl]amino-3-(2-thienylmethoxy)propan-2-ol
@<TRIPOS>ATOM
      1 C1         -4.2054   -2.6034    3.5161 C.ar      1 <0>        -0.1040
      2 C2         -4.3374   -1.2435    3.3061 C.ar      1 <0>        -0.1076
      3 C3         -3.7943   -0.6628    2.1752 C.ar      1 <0>        -0.1116
      4 C4         -3.1188   -1.4420    1.2546 C.ar      1 <0>        -0.1206
      5 C5         -2.9914   -2.8028    1.4620 C.ar      1 <0>        -0.1191
      6 C6         -3.5308   -3.3827    2.5950 C.ar      1 <0>        -0.1107
      7 C7         -2.5268   -0.8090    0.0218 C.3       1 <0>         0.0217
      8 H1         -2.7307    0.2617    0.0295 H         1 <0>         0.1066
      9 C8         -3.1517   -1.4383   -1.2249 C.3       1 <0>         0.0015
     10 C9         -5.2186   -1.7035   -2.4580 C.3       1 <0>        -0.0386
     11 C10        -6.7060   -1.3453   -2.4715 C.3       1 <0>         0.0853
     12 H2         -6.8185   -0.2615   -2.4996 H         1 <0>         0.1331
     13 C11        -7.3671   -1.9589   -3.7074 C.3       1 <0>         0.0314
     14 O1         -8.7278   -1.5290   -3.7827 O.3       1 <0>        -0.3677
     15 C12        -9.4400   -2.0483   -4.9074 C.3       1 <0>         0.1528
     16 C13       -10.8561   -1.5331   -4.8868 C.2       1 <0>        -0.1721
     17 C14       -11.3621   -0.4049   -5.4420 C.2       1 <0>        -0.1235
     18 C15       -12.7096   -0.1326   -5.2970 C.2       1 <0>        -0.1675
     19 C16       -13.4829   -0.9964   -4.5949 C.2       1 <0>        -0.1547
     20 S1        -12.3009   -2.2465   -4.1180 S.3       1 <0>         0.0573
     21 O2         -7.3303   -1.8587   -1.2931 O.3       1 <0>        -0.5427
     22 C17        -1.0371   -1.0366    0.0064 C.2       1 <0>        -0.1866
     23 C18        -0.4108   -2.2238   -0.0060 C.2       1 <0>         0.0760
     24 N1          0.9446   -2.0362   -0.0179 N.pl3     1 <0>        -0.5865
     25 H3          1.6053   -2.7463   -0.0283 H         1 <0>         0.4225
     26 C19         1.2308   -0.6894   -0.0134 C.ar      1 <0>         0.0961
     27 C20         0.0021   -0.0041    0.0020 C.ar      1 <0>        -0.0955
     28 C21        -0.0169    1.3917    0.0097 C.ar      1 <0>        -0.0810
     29 C22         1.1601    2.0862    0.0022 C.ar      1 <0>        -0.1324
     30 C23         2.3747    1.4149   -0.0130 C.ar      1 <0>        -0.0919
     31 C24         2.4165    0.0376   -0.0208 C.ar      1 <0>        -0.1235
     32 H4         -4.6291   -3.0569    4.3999 H         1 <0>         0.1297
     33 H5         -4.8644   -0.6346    4.0257 H         1 <0>         0.1307
     34 H6         -3.8974    0.3996    2.0112 H         1 <0>         0.1270
     35 H7         -2.4675   -3.4122    0.7406 H         1 <0>         0.1211
     36 H8         -3.4274   -4.4452    2.7592 H         1 <0>         0.1286
     37 H9         -2.6612   -1.0449   -2.1152 H         1 <0>         0.1396
     38 H10        -3.0249   -2.5203   -1.1883 H         1 <0>         0.1302
     39 H11        -4.7424   -1.3120   -3.3569 H         1 <0>         0.1456
     40 H12        -5.1061   -2.7873   -2.4299 H         1 <0>         0.1367
     41 H13        -6.8343   -1.6368   -4.6021 H         1 <0>         0.0713
     42 H14        -7.3329   -3.0460   -3.6358 H         1 <0>         0.0657
     43 H15        -8.9503   -1.7280   -5.8270 H         1 <0>         0.0773
     44 H16        -9.4489   -3.1373   -4.8607 H         1 <0>         0.0696
     45 H17       -10.7227    0.2697   -5.9919 H         1 <0>         0.1339
     46 H18       -13.1388    0.7575   -5.7328 H         1 <0>         0.1391
     47 H19       -14.5398   -0.9423   -4.3794 H         1 <0>         0.1907
     48 H20        -7.2690   -2.8194   -1.2021 H         1 <0>         0.3876
     49 H21        -0.9037   -3.1847   -0.0067 H         1 <0>         0.1680
     50 H22        -0.9583    1.9209    0.0170 H         1 <0>         0.1196
     51 H23         1.1449    3.1661    0.0078 H         1 <0>         0.1274
     52 H24         3.2965    1.9776   -0.0192 H         1 <0>         0.1314
     53 H25         3.3667   -0.4756   -0.0323 H         1 <0>         0.1252
     54 N2         -4.5889   -1.1085   -1.2640 N.4       1 <0>        -0.5140
     55 H26        -4.7016   -0.0884   -1.2945 H         1 <0>         0.4339
     56 H27        -5.0443   -1.4781   -0.4213 H         1 <0>         0.4371
@<TRIPOS>BOND
     1    1    6 ar
     2    1    2 ar
     3    1   32 1
     4    2    3 ar
     5    2   33 1
     6    3    4 ar
     7    3   34 1
     8    4    5 ar
     9    4    7 1
    10    5    6 ar
    11    5   35 1
    12    6   36 1
    13    7    8 1
    14    7    9 1
    15    7   22 1
    16    9   37 1
    17    9   38 1
    18    9   54 1
    19   10   11 1
    20   10   39 1
    21   10   40 1
    22   10   54 1
    23   11   12 1
    24   11   13 1
    25   11   21 1
    26   13   14 1
    27   13   41 1
    28   13   42 1
    29   14   15 1
    30   15   16 1
    31   15   43 1
    32   15   44 1
    33   16   20 1
    34   16   17 2
    35   17   18 1
    36   17   45 1
    37   18   19 2
    38   18   46 1
    39   19   20 1
    40   19   47 1
    41   21   48 1
    42   22   27 1
    43   22   23 2
    44   23   24 1
    45   23   49 1
    46   24   25 1
    47   24   26 1
    48   26   31 ar
    49   26   27 ar
    50   27   28 ar
    51   28   29 ar
    52   28   50 1
    53   29   30 ar
    54   29   51 1
    55   30   31 ar
    56   30   52 1
    57   31   53 1
    58   54   55 1
    59   54   56 1
@<TRIPOS>MOLECULE
ZINC37518819
   37    37     0     0     0
SMALL
USER_CHARGES

@<TRIPOS>ATOM
      1 C1          0.0647    1.2432   -0.6204 C.ar      1 <0>        -0.0334
      2 C2          1.2503    1.9519   -0.6185 C.ar      1 <0>        -0.1292
      3 C3          2.3814    1.4087   -0.0241 C.ar      1 <0>         0.2136
      4 C4          2.3173    0.1536    0.5672 C.ar      1 <0>        -0.2150
      5 C5          1.1295   -0.5505    0.5624 C.ar      1 <0>        -0.0194
      6 C6          0.0036   -0.0068   -0.0307 C.ar      1 <0>        -0.1143
      7 Br1        -1.6214   -0.9738   -0.0348 Br        1 <0>        -0.0232
      8 C7          3.5430   -0.4394    1.2129 C.3       1 <0>         0.5120
      9 F1          3.2318   -1.6997    1.7346 F         1 <0>        -0.1659
     10 F2          4.5574   -0.5675    0.2580 F         1 <0>        -0.1765
     11 F3          3.9777    0.3984    2.2455 F         1 <0>        -0.1730
     12 N1          3.5841    2.1245   -0.0212 N.am      1 <0>        -0.6751
     13 C8          3.5686    3.4688   -0.1160 C.2       1 <0>         0.5177
     14 O1          2.5127    4.0655   -0.1030 O.2       1 <0>        -0.5079
     15 C9          4.8631    4.2306   -0.2383 C.3       1 <0>        -0.1427
     16 C10         4.5665    5.7288   -0.3294 C.3       1 <0>        -0.1072
     17 C11         5.8808    6.5022   -0.4535 C.3       1 <0>        -0.1198
     18 C12         5.5842    8.0004   -0.5446 C.3       1 <0>        -0.1530
     19 C13         6.8985    8.7739   -0.6687 C.3       1 <0>        -0.0099
     20 N2          6.6138   10.2123   -0.7561 N.4       1 <0>        -0.6387
     21 H1         -0.8166    1.6671   -1.0786 H         1 <0>         0.1494
     22 H2          1.2975    2.9275   -1.0793 H         1 <0>         0.1647
     23 H3          1.0791   -1.5267    1.0218 H         1 <0>         0.1553
     24 H4          4.4289    1.6530    0.0491 H         1 <0>         0.4159
     25 H5          5.4835    4.0355    0.6364 H         1 <0>         0.1036
     26 H6          5.3902    3.9093   -1.1367 H         1 <0>         0.1048
     27 H7          3.9461    5.9239   -1.2041 H         1 <0>         0.0776
     28 H8          4.0394    6.0501    0.5690 H         1 <0>         0.0777
     29 H9          6.5012    6.3071    0.4212 H         1 <0>         0.0773
     30 H10         6.4080    6.1809   -1.3519 H         1 <0>         0.0772
     31 H11         4.9638    8.1955   -1.4193 H         1 <0>         0.0896
     32 H12         5.0571    8.3217    0.3538 H         1 <0>         0.0896
     33 H13         7.5189    8.5788    0.2060 H         1 <0>         0.1339
     34 H14         7.4257    8.4526   -1.5671 H         1 <0>         0.1339
     35 H15         6.0395   10.3929   -1.5658 H         1 <0>         0.4357
     36 H16         6.1258   10.5097    0.0754 H         1 <0>         0.4358
     37 H17         7.4805   10.7224   -0.8380 H         1 <0>         0.4388
@<TRIPOS>BOND
     1    1    6 ar
     2    1    2 ar
     3    1   21 1
     4    2    3 ar
     5    2   22 1
     6    3    4 ar
     7    3   12 1
     8    4    5 ar
     9    4    8 1
    10    5    6 ar
    11    5   23 1
    12    6    7 1
    13    8    9 1
    14    8   10 1
    15    8   11 1
    16   12   13 am
    17   12   24 1
    18   13   14 2
    19   13   15 1
    20   15   16 1
    21   15   25 1
    22   15   26 1
    23   16   17 1
    24   16   27 1
    25   16   28 1
    26   17   18 1
    27   17   29 1
    28   17   30 1
    29   18   19 1
    30   18   31 1
    31   18   32 1
    32   19   20 1
    33   19   33 1
    34   19   34 1
    35   20   35 1
    36   20   36 1
    37   20   37 1
@<TRIPOS>MOLECULE
ZINC40720099
   56    58     0     0     0
SMALL
USER_CHARGES

@<TRIPOS>ATOM
      1 C1         -0.0184    1.5028    0.0103 C.3       1 <0>        -0.1256
      2 C2          0.0021   -0.0041    0.0020 C.ar      1 <0>        -0.0724
      3 C3          0.0057   -0.6888   -1.1991 C.ar      1 <0>        -0.1123
      4 C4          0.0245   -2.0707   -1.2067 C.ar      1 <0>        -0.1059
      5 C5          0.0400   -2.7685   -0.0132 C.ar      1 <0>        -0.1234
      6 C6          0.0373   -2.0840    1.1875 C.ar      1 <0>        -0.1005
      7 C7          0.0229   -0.7015    1.1951 C.ar      1 <0>        -0.1043
      8 C8          0.0252    0.0449    2.5043 C.3       1 <0>         0.1054
      9 O1          0.0482   -0.8894    3.5853 O.3       1 <0>        -0.3163
     10 C9          0.0532   -0.3768    4.8437 C.ar      1 <0>         0.1927
     11 C10         0.0303    1.0098    5.0242 C.ar      1 <0>        -0.2101
     12 C11         0.0346    1.5526    6.2710 C.ar      1 <0>        -0.0136
     13 C12         0.0620    0.7118    7.3974 C.ar      1 <0>        -0.0901
     14 C13         0.0666    1.2390    8.7000 C.ar      1 <0>        -0.0732
     15 C14         0.0930    0.3958    9.7680 C.ar      1 <0>        -0.1274
     16 C15         0.1155   -0.9864    9.5908 C.ar      1 <0>        -0.0691
     17 C16         0.1118   -1.5331    8.3446 C.ar      1 <0>        -0.1559
     18 C17         0.0848   -0.6940    7.2170 C.ar      1 <0>         0.0098
     19 C18         0.0748   -1.2226    5.9158 C.ar      1 <0>        -0.2150
     20 C19         0.0930   -2.7145    5.7038 C.3       1 <0>         0.0585
     21 N1          1.4837   -3.1805    5.6218 N.4       1 <0>        -0.5069
     22 C20         1.5015   -4.6348    5.4151 C.3       1 <0>        -0.0096
     23 C21         2.9499   -5.1202    5.3297 C.3       1 <0>         0.0309
     24 N2          2.9677   -6.5745    5.1230 N.3       1 <0>        -0.6725
     25 C22         4.3453   -7.0771    5.0359 C.3       1 <0>         0.0586
     26 C23         4.3229   -8.5917    4.8212 C.3       1 <0>         0.0755
     27 O2          3.7328   -8.8844    3.5530 O.3       1 <0>        -0.5637
     28 H1          1.0042    1.8801    0.0026 H         1 <0>         0.0771
     29 H2         -0.5455    1.8639   -0.8728 H         1 <0>         0.0761
     30 H3         -0.5286    1.8543    0.9071 H         1 <0>         0.0651
     31 H4         -0.0064   -0.1437   -2.1314 H         1 <0>         0.1300
     32 H5          0.0266   -2.6056   -2.1449 H         1 <0>         0.1283
     33 H6          0.0540   -3.8484   -0.0191 H         1 <0>         0.1259
     34 H7          0.0491   -2.6290    2.1199 H         1 <0>         0.1207
     35 H8          0.9072    0.6833    2.5570 H         1 <0>         0.0844
     36 H9         -0.8725    0.6591    2.5739 H         1 <0>         0.0854
     37 H10         0.0093    1.6587    4.1611 H         1 <0>         0.1430
     38 H11         0.0175    2.6253    6.3954 H         1 <0>         0.1449
     39 H12         0.0498    2.3080    8.8528 H         1 <0>         0.1372
     40 H13         0.0969    0.8040   10.7679 H         1 <0>         0.1337
     41 H14         0.1366   -1.6333   10.4554 H         1 <0>         0.1322
     42 H15         0.1298   -2.6060    8.2224 H         1 <0>         0.1226
     43 H16        -0.4063   -3.2062    6.5387 H         1 <0>         0.1371
     44 H17        -0.4264   -2.9561    4.7765 H         1 <0>         0.1414
     45 H18         1.9459   -2.7253    4.8489 H         1 <0>         0.4289
     46 H19         1.0022   -5.1265    6.2500 H         1 <0>         0.1303
     47 H20         0.9820   -4.8764    4.4878 H         1 <0>         0.1428
     48 H21         3.4492   -4.6284    4.4948 H         1 <0>         0.0949
     49 H22         3.4694   -4.8786    6.2570 H         1 <0>         0.0516
     50 H23         2.4548   -7.0494    5.8507 H         1 <0>         0.3487
     51 H24         4.8542   -6.5989    4.1990 H         1 <0>         0.0878
     52 H25         4.8744   -6.8490    5.9612 H         1 <0>         0.0530
     53 H26         5.3422   -8.9772    4.8452 H         1 <0>         0.0583
     54 H27         3.7378   -9.0622    5.6114 H         1 <0>         0.0473
     55 H28         3.6857   -9.8286    3.3496 H         1 <0>         0.3839
     56 H29         1.9646   -2.9569    6.4802 H         1 <0>         0.4240
@<TRIPOS>BOND
     1    1    2 1
     2    1   28 1
     3    1   29 1
     4    1   30 1
     5    2    7 ar
     6    2    3 ar
     7    3    4 ar
     8    3   31 1
     9    4    5 ar
    10    4   32 1
    11    5    6 ar
    12    5   33 1
    13    6    7 ar
    14    6   34 1
    15    7    8 1
    16    8    9 1
    17    8   35 1
    18    8   36 1
    19    9   10 1
    20   10   19 ar
    21   10   11 ar
    22   11   12 ar
    23   11   37 1
    24   12   13 ar
    25   12   38 1
    26   13   18 ar
    27   13   14 ar
    28   14   15 ar
    29   14   39 1
    30   15   16 ar
    31   15   40 1
    32   16   17 ar
    33   16   41 1
    34   17   18 ar
    35   17   42 1
    36   18   19 ar
    37   19   20 1
    38   20   21 1
    39   20   43 1
    40   20   44 1
    41   21   22 1
    42   21   45 1
    43   21   56 1
    44   22   23 1
    45   22   46 1
    46   22   47 1
    47   23   24 1
    48   23   48 1
    49   23   49 1
    50   24   25 1
    51   24   50 1
    52   25   26 1
    53   25   51 1
    54   25   52 1
    55   26   27 1
    56   26   53 1
    57   26   54 1
    58   27   55 1
@<TRIPOS>MOLECULE
ZINC43262797
   48    48     0     0     0
SMALL
USER_CHARGES

@<TRIPOS>ATOM
      1 C1         -4.2305   -5.0663    2.1466 C.3       1 <0>        -0.1762
      2 C2         -3.2439   -3.9072    1.9919 C.3       1 <0>        -0.1563
      3 C3         -2.4416   -4.0890    0.7019 C.3       1 <0>         0.0335
      4 H1         -1.8961   -5.0318    0.7431 H         1 <0>         0.1511
      5 C4         -1.4511   -2.9329    0.5500 C.3       1 <0>         0.1491
      6 H2         -1.9990   -2.0009    0.4111 H         1 <0>         0.0961
      7 C5         -0.5695   -3.1805   -0.6469 C.2       1 <0>        -0.2137
      8 C6         -0.4908   -2.4848   -1.8072 C.2       1 <0>        -0.1220
      9 C7          0.4016   -2.8992   -2.7784 C.2       1 <0>        -0.1277
     10 C8          1.1716   -3.9901   -2.5408 C.2       1 <0>        -0.1611
     11 S1          0.6473   -4.4619   -0.9007 S.3       1 <0>         0.1615
     12 Br1         2.4693   -4.7974   -3.6545 Br        1 <0>         0.0626
     13 N1         -0.6210   -2.8374    1.7582 N.3       1 <0>        -0.5098
     14 C9         -1.2922   -2.0444    2.7968 C.3       1 <0>         0.0075
     15 C10        -0.5698   -2.2366    4.1318 C.3       1 <0>         0.0720
     16 O1          0.4775   -1.2716    4.2500 O.3       1 <0>        -0.5615
     17 C11         0.7026   -2.2822    1.4451 C.3       1 <0>         0.0795
     18 C12         0.6742   -0.7632    1.6259 C.3       1 <0>        -0.1743
     19 C13        -0.2805   -0.1455    0.6022 C.3       1 <0>        -0.1622
     20 C14         1.7456   -2.8884    2.3861 C.3       1 <0>        -0.1219
     21 C15         1.8817   -4.3853    2.1002 C.3       1 <0>        -0.1514
     22 N2         -3.3576   -4.1031   -0.4465 N.4       1 <0>        -0.6361
     23 H3         -4.7335   -4.9892    3.1105 H         1 <0>         0.0861
     24 H4         -4.9696   -5.0235    1.3466 H         1 <0>         0.0528
     25 H5         -3.6912   -6.0121    2.0928 H         1 <0>         0.0736
     26 H6         -3.7925   -2.9663    1.9490 H         1 <0>         0.0894
     27 H7         -2.5639   -3.8927    2.8437 H         1 <0>         0.1321
     28 H8         -1.1161   -1.6195   -1.9708 H         1 <0>         0.1447
     29 H9          0.4839   -2.3628   -3.7122 H         1 <0>         0.1500
     30 H10        -1.2700   -0.9903    2.5202 H         1 <0>         0.0784
     31 H11        -2.3269   -2.3732    2.8930 H         1 <0>         0.1017
     32 H12        -1.2779   -2.1064    4.9501 H         1 <0>         0.0555
     33 H13        -0.1458   -3.2399    4.1743 H         1 <0>         0.0656
     34 H14         1.0245   -1.3795    5.0401 H         1 <0>         0.3823
     35 H15         0.9617   -2.5206    0.4135 H         1 <0>         0.0877
     36 H16         0.3322   -0.5234    2.6326 H         1 <0>         0.1192
     37 H17         1.6763   -0.3608    1.4771 H         1 <0>         0.0678
     38 H18        -1.2726   -0.5809    0.7217 H         1 <0>         0.0446
     39 H19        -0.3351    0.9316    0.7600 H         1 <0>         0.0593
     40 H20         0.0859   -0.3471   -0.4043 H         1 <0>         0.0529
     41 H21         2.7065   -2.3992    2.2269 H         1 <0>         0.0631
     42 H22         1.4307   -2.7431    3.4195 H         1 <0>         0.0880
     43 H23         0.9207   -4.8745    2.2594 H         1 <0>         0.0577
     44 H24         2.1965   -4.5306    1.0668 H         1 <0>         0.0513
     45 H25         2.6247   -4.8172    2.7706 H         1 <0>         0.0525
     46 H26        -3.8625   -3.2304   -0.4847 H         1 <0>         0.4319
     47 H27        -2.8285   -4.2230   -1.2972 H         1 <0>         0.4346
     48 H28        -4.0108   -4.8656   -0.3464 H         1 <0>         0.4384
@<TRIPOS>BOND
     1    1    2 1
     2    1   23 1
     3    1   24 1
     4    1   25 1
     5    2    3 1
     6    2   26 1
     7    2   27 1
     8    3    4 1
     9    3    5 1
    10    3   22 1
    11    5    6 1
    12    5    7 1
    13    5   13 1
    14    7   11 1
    15    7    8 2
    16    8    9 1
    17    8   28 1
    18    9   10 2
    19    9   29 1
    20   10   11 1
    21   10   12 1
    22   13   14 1
    23   13   17 1
    24   14   15 1
    25   14   30 1
    26   14   31 1
    27   15   16 1
    28   15   32 1
    29   15   33 1
    30   16   34 1
    31   17   18 1
    32   17   20 1
    33   17   35 1
    34   18   19 1
    35   18   36 1
    36   18   37 1
    37   19   38 1
    38   19   39 1
    39   19   40 1
    40   20   21 1
    41   20   41 1
    42   20   42 1
    43   21   43 1
    44   21   44 1
    45   21   45 1
    46   22   46 1
    47   22   47 1
    48   22   48 1
@<TRIPOS>MOLECULE
ZINC66682226
   62    63     0     0     0
SMALL
USER_CHARGES

@<TRIPOS>ATOM
      1 C1         -1.1329   -2.6029    2.3570 C.3       1 <0>        -0.1225
      2 C2         -0.5360   -1.9713    1.1258 C.ar      1 <0>         0.0024
      3 C3         -0.4377   -2.6949   -0.0414 C.ar      1 <0>        -0.1315
      4 C4          0.1127   -2.1124   -1.1785 C.ar      1 <0>         0.1883
      5 C5          0.5657   -0.7971   -1.1405 C.ar      1 <0>        -0.1605
      6 C6          0.4703   -0.0681    0.0230 C.ar      1 <0>        -0.0585
      7 C7         -0.0870   -0.6486    1.1659 C.ar      1 <0>        -0.1552
      8 C8         -0.1959    0.1319    2.4137 C.2       1 <0>         0.5589
      9 O1         -0.7848   -0.3316    3.3712 O.2       1 <0>        -0.5279
     10 N1          0.3573    1.3583    2.4919 N.am      1 <0>        -0.7238
     11 C9          0.2492    2.1331    3.7306 C.3       1 <0>         0.1361
     12 C10         1.4070    3.1300    3.8113 C.3       1 <0>        -0.1625
     13 C11        -1.0792    2.8921    3.7431 C.3       1 <0>        -0.1647
     14 N2          0.2112   -2.8482   -2.3588 N.am      1 <0>        -0.6814
     15 C12         0.4511   -4.1735   -2.3086 C.2       1 <0>         0.7055
     16 O2          0.6751   -4.7107   -1.2412 O.2       1 <0>        -0.5589
     17 N3          0.4427   -4.9032   -3.4417 N.am      1 <0>        -0.7446
     18 C13         0.7035   -6.3438   -3.3872 C.3       1 <0>         0.1462
     19 C14         0.6356   -6.9281   -4.7996 C.3       1 <0>        -0.1311
     20 H1         -0.3242   -6.6770   -5.2510 H         1 <0>         0.1025
     21 C15         1.7668   -6.3438   -5.6482 C.3       1 <0>        -0.1702
     22 C16         0.7839   -8.4493   -4.7298 C.3       1 <0>        -0.0042
     23 N4          0.5994   -9.0213   -6.0702 N.4       1 <0>        -0.3826
     24 C17        -0.7763   -8.7771   -6.5197 C.3       1 <0>        -0.0137
     25 C18        -0.9508   -9.2992   -7.9475 C.3       1 <0>        -0.1456
     26 C19        -0.6628  -10.8030   -7.9739 C.3       1 <0>        -0.1400
     27 C20         0.7481  -11.0522   -7.4332 C.3       1 <0>        -0.1465
     28 C21         0.8596  -10.4652   -6.0245 C.3       1 <0>        -0.0072
     29 H2         -2.1850   -2.3283    2.4325 H         1 <0>         0.0784
     30 H3         -1.0444   -3.6872    2.2883 H         1 <0>         0.0590
     31 H4         -0.6010   -2.2502    3.2405 H         1 <0>         0.0978
     32 H5         -0.7880   -3.7160   -0.0741 H         1 <0>         0.1402
     33 H6          0.9928   -0.3480   -2.0250 H         1 <0>         0.1321
     34 H7          0.8220    0.9526    0.0518 H         1 <0>         0.1317
     35 H8          0.8271    1.7281    1.7280 H         1 <0>         0.3976
     36 H9          0.2903    1.4585    4.5858 H         1 <0>         0.0904
     37 H10         1.3659    3.8046    2.9561 H         1 <0>         0.0612
     38 H11         1.3265    3.7065    4.7329 H         1 <0>         0.0758
     39 H12         2.3533    2.5893    3.8024 H         1 <0>         0.0621
     40 H13        -1.1203    3.5666    2.8879 H         1 <0>         0.0565
     41 H14        -1.9040    2.1818    3.6856 H         1 <0>         0.0609
     42 H15        -1.1597    3.4685    4.6647 H         1 <0>         0.0680
     43 H16         0.1070   -2.4062   -3.2159 H         1 <0>         0.4095
     44 H17         0.2640   -4.4745   -4.2933 H         1 <0>         0.3995
     45 H18         1.6950   -6.5179   -2.9692 H         1 <0>         0.0818
     46 H19        -0.0456   -6.8251   -2.7585 H         1 <0>         0.0802
     47 H20         1.7184   -6.7602   -6.6544 H         1 <0>         0.0563
     48 H21         1.6611   -5.2601   -5.6979 H         1 <0>         0.0829
     49 H22         2.7266   -6.5950   -5.1968 H         1 <0>         0.0789
     50 H23         1.7783   -8.7009   -4.3611 H         1 <0>         0.1374
     51 H24         0.0320   -8.8571   -4.0542 H         1 <0>         0.1360
     52 H25        -1.4715   -9.2928   -5.8572 H         1 <0>         0.1304
     53 H26        -0.9808   -7.7067   -6.4972 H         1 <0>         0.1297
     54 H27        -1.9734   -9.1185   -8.2787 H         1 <0>         0.1124
     55 H28        -0.2562   -8.7839   -8.6109 H         1 <0>         0.0868
     56 H29        -1.3894  -11.3243   -7.3507 H         1 <0>         0.0826
     57 H30        -0.7305  -11.1691   -8.9984 H         1 <0>         0.0947
     58 H31         0.9398  -12.1246   -7.3968 H         1 <0>         0.1134
     59 H32         1.4779  -10.5733   -8.0859 H         1 <0>         0.0871
     60 H33         1.8629  -10.6410   -5.6364 H         1 <0>         0.1312
     61 H34         0.1296  -10.9449   -5.3726 H         1 <0>         0.1300
     62 H35         1.2435   -8.5847   -6.7126 H         1 <0>         0.4205
@<TRIPOS>BOND
     1    1    2 1
     2    1   29 1
     3    1   30 1
     4    1   31 1
     5    2    7 ar
     6    2    3 ar
     7    3    4 ar
     8    3   32 1
     9    4    5 ar
    10    4   14 1
    11    5    6 ar
    12    5   33 1
    13    6    7 ar
    14    6   34 1
    15    7    8 1
    16    8    9 2
    17    8   10 am
    18   10   11 1
    19   10   35 1
    20   11   12 1
    21   11   13 1
    22   11   36 1
    23   12   37 1
    24   12   38 1
    25   12   39 1
    26   13   40 1
    27   13   41 1
    28   13   42 1
    29   14   15 am
    30   14   43 1
    31   15   16 2
    32   15   17 am
    33   17   18 1
    34   17   44 1
    35   18   19 1
    36   18   45 1
    37   18   46 1
    38   19   20 1
    39   19   21 1
    40   19   22 1
    41   21   47 1
    42   21   48 1
    43   21   49 1
    44   22   23 1
    45   22   50 1
    46   22   51 1
    47   23   28 1
    48   23   24 1
    49   23   62 1
    50   24   25 1
    51   24   52 1
    52   24   53 1
    53   25   26 1
    54   25   54 1
    55   25   55 1
    56   26   27 1
    57   26   56 1
    58   26   57 1
    59   27   28 1
    60   27   58 1
    61   27   59 1
    62   28   60 1
    63   28   61 1
@<TRIPOS>MOLECULE
ZINC12754032
   58    60     0     0     0
SMALL
USER_CHARGES
(3R)-3-[(cyclopentylamino)methyl]-3-hydroxy-1-[(4-isopropylphenyl)methyl]piperidin-2-one
@<TRIPOS>ATOM
      1 C1         -0.0127    1.0858    0.0080 C.3       1 <0>        -0.1438
      2 C2         -0.7288    1.5792    1.2668 C.3       1 <0>        -0.0633
      3 C3          0.0111    1.0724    2.5063 C.3       1 <0>        -0.1463
      4 C4         -2.1427    1.0576    1.2775 C.ar      1 <0>        -0.0585
      5 C5         -2.3768   -0.3047    1.2667 C.ar      1 <0>        -0.1194
      6 C6         -3.6736   -0.7832    1.2814 C.ar      1 <0>        -0.0957
      7 C7         -4.7364    0.1007    1.2963 C.ar      1 <0>        -0.1245
      8 C8         -4.5022    1.4630    1.3018 C.ar      1 <0>        -0.0991
      9 C9         -3.2054    1.9415    1.2924 C.ar      1 <0>        -0.1181
     10 C10        -6.1502   -0.4209    1.3061 C.3       1 <0>         0.1411
     11 N1         -6.6207   -0.5823   -0.0719 N.am      1 <0>        -0.5548
     12 C11        -7.2908    0.5485   -0.7017 C.3       1 <0>         0.0946
     13 C12        -8.1070    0.0858   -1.9070 C.3       1 <0>        -0.1373
     14 C13        -7.2150   -0.7787   -2.8061 C.3       1 <0>        -0.1147
     15 C14        -6.8858   -2.0737   -2.0594 C.3       1 <0>         0.1067
     16 C15        -6.4137   -1.7563   -0.6696 C.2       1 <0>         0.4962
     17 O1         -5.8117   -2.6134   -0.0581 O.2       1 <0>        -0.5688
     18 C16        -5.7861   -2.8276   -2.8099 C.3       1 <0>        -0.0197
     19 C17        -4.4218   -4.8279   -2.7935 C.3       1 <0>         0.0242
     20 C18        -5.0459   -5.7518   -3.8597 C.3       1 <0>        -0.1422
     21 C19        -4.1766   -7.0327   -3.8081 C.3       1 <0>        -0.1247
     22 C20        -3.8854   -7.1873   -2.2947 C.3       1 <0>        -0.1304
     23 C21        -3.6840   -5.7406   -1.7985 C.3       1 <0>        -0.1436
     24 O2         -8.0569   -2.8895   -1.9882 O.3       1 <0>        -0.5140
     25 H1          0.0021   -0.0041    0.0020 H         1 <0>         0.0547
     26 H2          1.0099    1.4631    0.0003 H         1 <0>         0.0632
     27 H3         -0.5399    1.4469   -0.8751 H         1 <0>         0.0543
     28 H4         -0.7436    2.6691    1.2728 H         1 <0>         0.0809
     29 H5          1.0337    1.4497    2.4986 H         1 <0>         0.0630
     30 H6         -0.4990    1.4239    3.4031 H         1 <0>         0.0578
     31 H7          0.0259   -0.0175    2.5003 H         1 <0>         0.0562
     32 H8         -1.5466   -0.9952    1.2506 H         1 <0>         0.1221
     33 H9         -3.8566   -1.8476    1.2768 H         1 <0>         0.1242
     34 H10        -5.3325    2.1536    1.3131 H         1 <0>         0.1226
     35 H11        -3.0225    3.0059    1.2963 H         1 <0>         0.1259
     36 H12        -6.1785   -1.3845    1.8148 H         1 <0>         0.1023
     37 H13        -6.7945    0.2854    1.8296 H         1 <0>         0.0978
     38 H14        -7.9523    1.0242    0.0224 H         1 <0>         0.0956
     39 H15        -6.5446    1.2710   -1.0323 H         1 <0>         0.0837
     40 H16        -8.4591    0.9527   -2.4661 H         1 <0>         0.1050
     41 H17        -8.9603   -0.5005   -1.5660 H         1 <0>         0.0885
     42 H18        -6.2939   -0.2422   -3.0340 H         1 <0>         0.0979
     43 H19        -7.7426   -1.0122   -3.7309 H         1 <0>         0.1044
     44 H20        -6.1276   -3.0586   -3.8189 H         1 <0>         0.1492
     45 H21        -4.8912   -2.2075   -2.8622 H         1 <0>         0.1410
     46 H22        -3.7181   -4.1391   -3.2610 H         1 <0>         0.1398
     47 H23        -6.0806   -5.9824   -3.6062 H         1 <0>         0.0870
     48 H24        -4.9873   -5.2906   -4.8456 H         1 <0>         0.0968
     49 H25        -3.2513   -6.8945   -4.3674 H         1 <0>         0.0832
     50 H26        -4.7292   -7.8934   -4.1850 H         1 <0>         0.0886
     51 H27        -2.9800   -7.7738   -2.1384 H         1 <0>         0.0871
     52 H28        -4.7313   -7.6506   -1.7867 H         1 <0>         0.0780
     53 H29        -2.6220   -5.4954   -1.7836 H         1 <0>         0.1018
     54 H30        -4.1076   -5.6249   -0.8008 H         1 <0>         0.0862
     55 H31        -7.9224   -3.7317   -1.5326 H         1 <0>         0.3793
     56 N2         -5.4809   -4.0790   -2.0910 N.4       1 <0>        -0.5184
     57 H32        -6.3284   -4.6566   -2.0418 H         1 <0>         0.4182
     58 H33        -5.1637   -3.8549   -1.1406 H         1 <0>         0.4379
@<TRIPOS>BOND
     1    1    2 1
     2    1   25 1
     3    1   26 1
     4    1   27 1
     5    2    3 1
     6    2    4 1
     7    2   28 1
     8    3   29 1
     9    3   30 1
    10    3   31 1
    11    4    9 ar
    12    4    5 ar
    13    5    6 ar
    14    5   32 1
    15    6    7 ar
    16    6   33 1
    17    7    8 ar
    18    7   10 1
    19    8    9 ar
    20    8   34 1
    21    9   35 1
    22   10   11 1
    23   10   36 1
    24   10   37 1
    25   11   16 am
    26   11   12 1
    27   12   13 1
    28   12   38 1
    29   12   39 1
    30   13   14 1
    31   13   40 1
    32   13   41 1
    33   14   15 1
    34   14   42 1
    35   14   43 1
    36   15   16 1
    37   15   18 1
    38   15   24 1
    39   16   17 2
    40   18   44 1
    41   18   45 1
    42   18   56 1
    43   19   23 1
    44   19   20 1
    45   19   46 1
    46   19   56 1
    47   20   21 1
    48   20   47 1
    49   20   48 1
    50   21   22 1
    51   21   49 1
    52   21   50 1
    53   22   23 1
    54   22   51 1
    55   22   52 1
    56   23   53 1
    57   23   54 1
    58   24   55 1
    59   56   57 1
    60   56   58 1
@<TRIPOS>MOLECULE
ZINC37980929
   42    43     0     0     0
SMALL
USER_CHARGES

@<TRIPOS>ATOM
      1 C1         -0.0184    1.5028    0.0103 C.3       1 <0>        -0.0890
      2 C2          0.0021   -0.0041    0.0020 C.2       1 <0>         0.0424
      3 C3         -1.0783   -0.8055    0.0027 C.2       1 <0>        -0.2173
      4 C4         -0.6011   -2.1363   -0.0068 C.2       1 <0>        -0.1247
      5 C5          0.7423   -2.0686   -0.0126 C.2       1 <0>        -0.1191
      6 O1          1.1020   -0.7746   -0.0131 O.3       1 <0>        -0.1798
      7 C6          1.6840   -3.2450   -0.0226 C.3       1 <0>         0.1386
      8 H1          1.1588   -4.1339    0.3270 H         1 <0>         0.1624
      9 C7          2.1918   -3.4798   -1.4467 C.3       1 <0>        -0.1860
     10 N1          2.8224   -2.9686    0.8638 N.4       1 <0>        -0.5051
     11 C8          3.6781   -4.1597    0.9477 C.3       1 <0>        -0.0471
     12 C9          4.8638   -3.8718    1.8709 C.3       1 <0>         0.0872
     13 H2          5.3890   -2.9830    1.5213 H         1 <0>         0.1358
     14 C10         5.8199   -5.0662    1.8607 C.3       1 <0>         0.0279
     15 O2          6.9827   -4.7522    2.6297 O.3       1 <0>        -0.2981
     16 C11         7.9390   -5.7134    2.7228 C.ar      1 <0>         0.1343
     17 C12         7.7641   -6.9315    2.0824 C.ar      1 <0>        -0.2040
     18 C13         8.7373   -7.9072    2.1783 C.ar      1 <0>        -0.0492
     19 C14         9.8858   -7.6703    2.9124 C.ar      1 <0>        -0.1227
     20 C15        10.0619   -6.4564    3.5522 C.ar      1 <0>        -0.0473
     21 C16         9.0939   -5.4757    3.4537 C.ar      1 <0>        -0.1379
     22 Br1        11.2163   -9.0077    3.0420 Br        1 <0>        -0.0359
     23 O3          4.3896   -3.6525    3.2010 O.3       1 <0>        -0.5417
     24 H3          1.0042    1.8801    0.0026 H         1 <0>         0.0827
     25 H4         -0.5455    1.8639   -0.8728 H         1 <0>         0.0993
     26 H5         -0.5286    1.8543    0.9071 H         1 <0>         0.0988
     27 H6         -2.1119   -0.4924    0.0097 H         1 <0>         0.1634
     28 H7         -1.2002   -3.0349   -0.0086 H         1 <0>         0.1614
     29 H8          2.8729   -4.3307   -1.4539 H         1 <0>         0.0904
     30 H9          1.3471   -3.6849   -2.1044 H         1 <0>         0.1129
     31 H10         2.7170   -2.5910   -1.7963 H         1 <0>         0.0872
     32 H11         3.3563   -2.1962    0.4946 H         1 <0>         0.4326
     33 H12         3.1013   -4.9941    1.3465 H         1 <0>         0.1440
     34 H13         4.0453   -4.4141   -0.0466 H         1 <0>         0.1500
     35 H14         5.3218   -5.9340    2.2931 H         1 <0>         0.0798
     36 H15         6.1121   -5.2890    0.8345 H         1 <0>         0.0841
     37 H16         6.8676   -7.1170    1.5095 H         1 <0>         0.1333
     38 H17         8.6014   -8.8558    1.6802 H         1 <0>         0.1392
     39 H18        10.9590   -6.2735    4.1251 H         1 <0>         0.1455
     40 H19         9.2341   -4.5263    3.9491 H         1 <0>         0.1434
     41 H20         3.9112   -4.4041    3.5769 H         1 <0>         0.3909
     42 H21         2.4825   -2.7331    1.7842 H         1 <0>         0.4374
@<TRIPOS>BOND
     1    1    2 1
     2    1   24 1
     3    1   25 1
     4    1   26 1
     5    2    6 1
     6    2    3 2
     7    3    4 1
     8    3   27 1
     9    4    5 2
    10    4   28 1
    11    5    6 1
    12    5    7 1
    13    7    8 1
    14    7    9 1
    15    7   10 1
    16    9   29 1
    17    9   30 1
    18    9   31 1
    19   10   11 1
    20   10   32 1
    21   10   42 1
    22   11   12 1
    23   11   33 1
    24   11   34 1
    25   12   13 1
    26   12   14 1
    27   12   23 1
    28   14   15 1
    29   14   35 1
    30   14   36 1
    31   15   16 1
    32   16   21 ar
    33   16   17 ar
    34   17   18 ar
    35   17   37 1
    36   18   19 ar
    37   18   38 1
    38   19   20 ar
    39   19   22 1
    40   20   21 ar
    41   20   39 1
    42   21   40 1
    43   23   41 1
@<TRIPOS>MOLECULE
ZINC52066924
   47    47     0     0     0
SMALL
USER_CHARGES

@<TRIPOS>ATOM
      1 C1         -0.1984    1.0816   -0.2859 C.3       1 <0>        -0.1761
      2 C2          0.0341   -0.4242   -0.1464 C.3       1 <0>         0.0888
      3 H1          0.6438   -0.7763   -0.9785 H         1 <0>         0.1547
      4 C3          0.7462   -0.7043    1.1519 C.ar      1 <0>        -0.1634
      5 C4          0.0343   -1.1511    2.2484 C.ar      1 <0>        -0.0662
      6 C5          0.6875   -1.4084    3.4403 C.ar      1 <0>        -0.1170
      7 C6          2.0547   -1.2189    3.5371 C.ar      1 <0>        -0.0251
      8 C7          2.7701   -0.7727    2.4431 C.ar      1 <0>        -0.1905
      9 C8          2.1177   -0.5191    1.2452 C.ar      1 <0>         0.1769
     10 O1          2.8207   -0.0845    0.1662 O.3       1 <0>        -0.2803
     11 C9          4.2423   -0.0258    0.2988 C.3       1 <0>         0.0648
     12 H2          4.5830   -0.8497    0.9258 H         1 <0>         0.1060
     13 C10         4.6399    1.3037    0.9431 C.3       1 <0>        -0.1813
     14 C11         4.8787   -0.1343   -1.0629 C.2       1 <0>         0.5189
     15 O2          4.1840   -0.1591   -2.0568 O.2       1 <0>        -0.5184
     16 N1          6.2199   -0.2038   -1.1763 N.am      1 <0>        -0.7192
     17 C12         6.8386   -0.3092   -2.5001 C.3       1 <0>         0.1227
     18 C13         8.3598   -0.3719   -2.3485 C.3       1 <0>        -0.1087
     19 C14         8.9995   -0.6070   -3.7183 C.3       1 <0>        -0.1484
     20 C15         8.8692    0.9487   -1.7677 C.3       1 <0>        -0.1519
     21 Br1        -0.2896   -2.0193    4.9396 Br        1 <0>        -0.0183
     22 N2         -1.2584   -1.1222   -0.1564 N.4       1 <0>        -0.5107
     23 C16        -1.8989   -0.9478   -1.4668 C.3       1 <0>        -0.0512
     24 H3          0.7606    1.5996   -0.2785 H         1 <0>         0.1092
     25 H4         -0.7135    1.2842   -1.2250 H         1 <0>         0.0873
     26 H5         -0.8080    1.4338    0.5462 H         1 <0>         0.0816
     27 H6         -1.0329   -1.2993    2.1750 H         1 <0>         0.1333
     28 H7          2.5626   -1.4196    4.4688 H         1 <0>         0.1504
     29 H8          3.8372   -0.6245    2.5192 H         1 <0>         0.1523
     30 H9          4.2992    2.1276    0.3161 H         1 <0>         0.0812
     31 H10         4.1796    1.3822    1.9280 H         1 <0>         0.0796
     32 H11         5.7243    1.3485    1.0443 H         1 <0>         0.0878
     33 H12         6.7755   -0.1839   -0.3815 H         1 <0>         0.4035
     34 H13         6.4853   -1.2137   -2.9953 H         1 <0>         0.0728
     35 H14         6.5686    0.5614   -3.0978 H         1 <0>         0.0743
     36 H15         8.6248   -1.1897   -1.6785 H         1 <0>         0.0785
     37 H16         8.7345    0.2108   -4.3883 H         1 <0>         0.0605
     38 H17        10.0833   -0.6517   -3.6103 H         1 <0>         0.0654
     39 H18         8.6366   -1.5479   -4.1321 H         1 <0>         0.0596
     40 H19         8.4135    1.1163   -0.7918 H         1 <0>         0.0518
     41 H20         9.9530    0.9041   -1.6597 H         1 <0>         0.0635
     42 H21         8.6042    1.7666   -2.4377 H         1 <0>         0.0600
     43 H22        -1.1111   -2.1051    0.0178 H         1 <0>         0.4316
     44 H23        -2.8580   -1.4657   -1.4743 H         1 <0>         0.1296
     45 H24        -2.0580    0.1140   -1.6550 H         1 <0>         0.1273
     46 H25        -1.2562   -1.3621   -2.2435 H         1 <0>         0.1268
     47 H26        -1.8534   -0.7387    0.5626 H         1 <0>         0.4262
@<TRIPOS>BOND
     1    1    2 1
     2    1   24 1
     3    1   25 1
     4    1   26 1
     5    2    3 1
     6    2    4 1
     7    2   22 1
     8    4    9 ar
     9    4    5 ar
    10    5    6 ar
    11    5   27 1
    12    6    7 ar
    13    6   21 1
    14    7    8 ar
    15    7   28 1
    16    8    9 ar
    17    8   29 1
    18    9   10 1
    19   10   11 1
    20   11   12 1
    21   11   13 1
    22   11   14 1
    23   13   30 1
    24   13   31 1
    25   13   32 1
    26   14   15 2
    27   14   16 am
    28   16   17 1
    29   16   33 1
    30   17   18 1
    31   17   34 1
    32   17   35 1
    33   18   19 1
    34   18   20 1
    35   18   36 1
    36   19   37 1
    37   19   38 1
    38   19   39 1
    39   20   40 1
    40   20   41 1
    41   20   42 1
    42   22   23 1
    43   22   43 1
    44   22   47 1
    45   23   44 1
    46   23   45 1
    47   23   46 1
@<TRIPOS>MOLECULE
ZINC61694442
   43    44     0     0     0
SMALL
USER_CHARGES

@<TRIPOS>ATOM
      1 C1         -0.0187    1.5258    0.0104 C.3       1 <0>        -0.1568
      2 C2          0.0021   -0.0041    0.0020 C.3       1 <0>        -0.1510
      3 C3         -1.4333   -0.5336    0.0129 C.3       1 <0>        -0.0148
      4 N1         -1.4134   -2.0025    0.0048 N.4       1 <0>        -0.5091
      5 C4         -2.7915   -2.5110    0.0152 C.3       1 <0>         0.0827
      6 H1         -3.3284   -2.0882    0.8645 H         1 <0>         0.1480
      7 C5         -3.4935   -2.1085   -1.2833 C.3       1 <0>        -0.1795
      8 C6         -2.7718   -4.0134    0.1308 C.ar      1 <0>        -0.1429
      9 C7         -1.8253   -4.7462   -0.5619 C.ar      1 <0>        -0.1011
     10 C8         -1.8038   -6.1232   -0.4581 C.ar      1 <0>        -0.1028
     11 C9         -2.7341   -6.7725    0.3431 C.ar      1 <0>         0.2294
     12 C10        -3.6840   -6.0335    1.0380 C.ar      1 <0>        -0.0935
     13 C11        -3.6964   -4.6556    0.9336 C.ar      1 <0>        -0.0554
     14 Br1        -4.9537   -6.9118    2.1299 Br        1 <0>        -0.0096
     15 N2         -2.7153   -8.1656    0.4499 N.pl3     1 <0>        -0.6831
     16 C12        -3.4841   -9.0154   -0.4751 C.3       1 <0>         0.1269
     17 C13        -2.4993   -9.9038   -1.2376 C.3       1 <0>         0.0937
     18 N3         -1.5369  -10.5083   -0.3268 N.am      1 <0>        -0.7164
     19 C14        -1.2329  -10.0297    0.8805 C.2       1 <0>         0.5098
     20 O1         -0.3561  -10.5763    1.5156 O.2       1 <0>        -0.5435
     21 C15        -1.9223   -8.8429    1.4866 C.3       1 <0>         0.1326
     22 H2          1.0039    1.9031    0.0027 H         1 <0>         0.0781
     23 H3         -0.5459    1.8868   -0.8726 H         1 <0>         0.0674
     24 H4         -0.5289    1.8773    0.9072 H         1 <0>         0.0677
     25 H5          0.5123   -0.3556   -0.8948 H         1 <0>         0.0862
     26 H6          0.5293   -0.3651    0.8851 H         1 <0>         0.0869
     27 H7         -1.9435   -0.1821    0.9097 H         1 <0>         0.1337
     28 H8         -1.9605   -0.1726   -0.8702 H         1 <0>         0.1347
     29 H9         -0.9411   -2.3279   -0.8254 H         1 <0>         0.4241
     30 H10        -4.5161   -2.4858   -1.2756 H         1 <0>         0.1085
     31 H11        -3.5077   -1.0218   -1.3669 H         1 <0>         0.0868
     32 H12        -2.9566   -2.5312   -2.1326 H         1 <0>         0.0836
     33 H13        -1.1023   -4.2410   -1.1850 H         1 <0>         0.1276
     34 H14        -1.0644   -6.6946   -0.9997 H         1 <0>         0.1436
     35 H15        -4.4314   -4.0800    1.4767 H         1 <0>         0.1453
     36 H16        -4.1797   -9.6371    0.0887 H         1 <0>         0.0773
     37 H17        -4.0350   -8.3899   -1.1774 H         1 <0>         0.0927
     38 H18        -3.0504  -10.6913   -1.7517 H         1 <0>         0.0903
     39 H19        -1.9672   -9.3005   -1.9731 H         1 <0>         0.0672
     40 H20        -1.0855  -11.3159   -0.6185 H         1 <0>         0.4030
     41 H21        -1.1782   -8.1535    1.8856 H         1 <0>         0.1051
     42 H22        -2.5799   -9.1774    2.2889 H         1 <0>         0.0963
     43 H23        -0.9254   -2.3367    0.8222 H         1 <0>         0.4306
@<TRIPOS>BOND
     1    1    2 1
     2    1   22 1
     3    1   23 1
     4    1   24 1
     5    2    3 1
     6    2   25 1
     7    2   26 1
     8    3    4 1
     9    3   27 1
    10    3   28 1
    11    4    5 1
    12    4   29 1
    13    4   43 1
    14    5    6 1
    15    5    7 1
    16    5    8 1
    17    7   30 1
    18    7   31 1
    19    7   32 1
    20    8   13 ar
    21    8    9 ar
    22    9   10 ar
    23    9   33 1
    24   10   11 ar
    25   10   34 1
    26   11   12 ar
    27   11   15 1
    28   12   13 ar
    29   12   14 1
    30   13   35 1
    31   15   21 1
    32   15   16 1
    33   16   17 1
    34   16   36 1
    35   16   37 1
    36   17   18 1
    37   17   38 1
    38   17   39 1
    39   18   19 am
    40   18   40 1
    41   19   20 2
    42   19   21 1
    43   21   41 1
    44   21   42 1
@<TRIPOS>MOLECULE
ZINC67217222
   45    47     0     0     0
SMALL
USER_CHARGES

@<TRIPOS>ATOM
      1 C1          0.0198    0.7699    0.2945 C.3       1 <0>        -0.1551
      2 C2         -0.1619   -0.7474    0.2178 C.3       1 <0>         0.0531
      3 O1         -1.5556   -1.0579    0.1595 O.3       1 <0>        -0.3273
      4 C3         -1.8923   -2.3725    0.0873 C.ar      1 <0>         0.1541
      5 C4         -0.9017   -3.3441    0.0788 C.ar      1 <0>        -0.2051
      6 C5         -1.2466   -4.6796    0.0059 C.ar      1 <0>        -0.0432
      7 C6         -2.5777   -5.0487   -0.0585 C.ar      1 <0>        -0.1509
      8 C7         -3.5665   -4.0826   -0.0506 C.ar      1 <0>        -0.0512
      9 C8         -3.2270   -2.7456    0.0280 C.ar      1 <0>        -0.1988
     10 C9         -4.3055   -1.6932    0.0429 C.3       1 <0>         0.0555
     11 N1         -4.4453   -1.1162   -1.3008 N.4       1 <0>        -0.5083
     12 C10        -5.4967   -0.0904   -1.2863 C.3       1 <0>         0.0817
     13 C11        -5.6508    0.4906   -2.6683 C.2       1 <0>        -0.3104
     14 C12        -5.1835    1.6877   -3.0846 C.2       1 <0>         0.1225
     15 N2         -5.5255    1.8404   -4.3819 N.pl3     1 <0>        -0.4527
     16 H1         -5.3191    2.6075   -4.9385 H         1 <0>         0.4556
     17 N3         -6.2295    0.6984   -4.7847 N.2       1 <0>        -0.2546
     18 C13        -6.3024   -0.1208   -3.7571 C.2       1 <0>         0.1408
     19 C14        -6.9590   -1.4518   -3.7463 C.ar      1 <0>        -0.0584
     20 C15        -6.7754   -2.3300   -4.8123 C.ar      1 <0>        -0.0549
     21 C16        -7.3877   -3.5665   -4.7983 C.ar      1 <0>        -0.1475
     22 C17        -8.1844   -3.9350   -3.7264 C.ar      1 <0>         0.1243
     23 C18        -8.3696   -3.0649   -2.6644 C.ar      1 <0>        -0.1506
     24 C19        -7.7560   -1.8290   -2.6675 C.ar      1 <0>        -0.0804
     25 F1         -8.7828   -5.1463   -3.7171 F         1 <0>        -0.1272
     26 H2          1.0828    1.0067    0.3390 H         1 <0>         0.0874
     27 H3         -0.4191    1.2335   -0.5890 H         1 <0>         0.0656
     28 H4         -0.4749    1.1503    1.1881 H         1 <0>         0.0699
     29 H5          0.3328   -1.1278   -0.6759 H         1 <0>         0.0700
     30 H6          0.2770   -1.2110    1.1012 H         1 <0>         0.0719
     31 H7          0.1380   -3.0563    0.1287 H         1 <0>         0.1393
     32 H8         -0.4759   -5.4362   -0.0011 H         1 <0>         0.1381
     33 H9         -2.8453   -6.0935   -0.1154 H         1 <0>         0.1380
     34 H10        -4.6054   -4.3733   -0.1013 H         1 <0>         0.1400
     35 H11        -5.2504   -2.1455    0.3441 H         1 <0>         0.1374
     36 H12        -4.0371   -0.9078    0.7494 H         1 <0>         0.1396
     37 H13        -3.5707   -0.6975   -1.5797 H         1 <0>         0.4265
     38 H14        -6.4391   -0.5404   -0.9742 H         1 <0>         0.1354
     39 H15        -5.2229    0.7006   -0.5881 H         1 <0>         0.1394
     40 H16        -4.6334    2.3979   -2.4851 H         1 <0>         0.1933
     41 H17        -6.1550   -2.0433   -5.6485 H         1 <0>         0.1410
     42 H18        -7.2459   -4.2478   -5.6242 H         1 <0>         0.1474
     43 H19        -8.9915   -3.3561   -1.8308 H         1 <0>         0.1473
     44 H20        -7.8974   -1.1530   -1.8372 H         1 <0>         0.1378
     45 H21        -4.6938   -1.8433   -1.9549 H         1 <0>         0.4237
@<TRIPOS>BOND
     1    1    2 1
     2    1   26 1
     3    1   27 1
     4    1   28 1
     5    2    3 1
     6    2   29 1
     7    2   30 1
     8    3    4 1
     9    4    9 ar
    10    4    5 ar
    11    5    6 ar
    12    5   31 1
    13    6    7 ar
    14    6   32 1
    15    7    8 ar
    16    7   33 1
    17    8    9 ar
    18    8   34 1
    19    9   10 1
    20   10   11 1
    21   10   35 1
    22   10   36 1
    23   11   12 1
    24   11   37 1
    25   11   45 1
    26   12   13 1
    27   12   38 1
    28   12   39 1
    29   13   18 1
    30   13   14 2
    31   14   15 1
    32   14   40 1
    33   15   16 1
    34   15   17 1
    35   17   18 2
    36   18   19 1
    37   19   24 ar
    38   19   20 ar
    39   20   21 ar
    40   20   41 1
    41   21   22 ar
    42   21   42 1
    43   22   23 ar
    44   22   25 1
    45   23   24 ar
    46   23   43 1
    47   24   44 1
@<TRIPOS>MOLECULE
ZINC32087752
   51    52     0     0     0
SMALL
USER_CHARGES
(2S)-2-(4-butoxy-3-chloro-5-methoxy-phenyl)-2-pyrrolidin-1-yl-ethanamine
@<TRIPOS>ATOM
      1 C1         -2.3363    0.8768   -3.3166 C.3       1 <0>        -0.1574
      2 C2         -1.3804    0.5049   -2.1813 C.3       1 <0>        -0.1208
      3 C3         -1.9566    0.9905   -0.8498 C.3       1 <0>        -0.1216
      4 C4         -1.0007    0.6186    0.2855 C.3       1 <0>         0.0684
      5 O1         -1.5389    1.0721    1.5292 O.3       1 <0>        -0.3122
      6 C5         -0.8070    0.8197    2.6475 C.ar      1 <0>         0.1248
      7 C6          0.1392    1.7416    3.0845 C.ar      1 <0>         0.1496
      8 C7          0.8820    1.4802    4.2245 C.ar      1 <0>        -0.1938
      9 C8          0.6830    0.3051    4.9256 C.ar      1 <0>        -0.1432
     10 C9         -0.2566   -0.6112    4.4923 C.ar      1 <0>        -0.1335
     11 C10        -1.0060   -0.3541    3.3578 C.ar      1 <0>        -0.0155
     12 Cl1        -2.1903   -1.5039    2.8203 Cl        1 <0>         0.0026
     13 C11         1.4929    0.0226    6.1647 C.3       1 <0>         0.0650
     14 H1          2.4192    0.6156    6.1462 H         1 <0>         0.1610
     15 C12         0.6583    0.3489    7.4048 C.3       1 <0>        -0.0174
     16 N1          0.3744    1.7898    7.4387 N.4       1 <0>        -0.6831
     17 N2          1.8718   -1.3965    6.1890 N.4       1 <0>        -0.4095
     18 C13         2.6821   -1.7516    4.9959 C.3       1 <0>         0.0010
     19 C14         3.4069   -3.0494    5.4330 C.3       1 <0>        -0.1439
     20 C15         3.7256   -2.7825    6.9221 C.3       1 <0>        -0.1439
     21 C16         2.7243   -1.6975    7.3595 C.3       1 <0>        -0.0083
     22 O2          0.3348    2.8966    2.3938 O.3       1 <0>        -0.2816
     23 C17         1.3225    3.7963    2.9008 C.3       1 <0>         0.0139
     24 H2         -1.9220    0.5277   -4.2739 H         1 <0>         0.0631
     25 H3         -2.4612    1.9692   -3.3477 H         1 <0>         0.0590
     26 H4         -3.3129    0.4009   -3.1443 H         1 <0>         0.0590
     27 H5         -1.2555   -0.5875   -2.1502 H         1 <0>         0.0653
     28 H6         -0.4037    0.9808   -2.3535 H         1 <0>         0.0654
     29 H7         -2.0815    2.0829   -0.8810 H         1 <0>         0.0795
     30 H8         -2.9333    0.5146   -0.6775 H         1 <0>         0.0789
     31 H9         -0.8758   -0.4738    0.3166 H         1 <0>         0.0610
     32 H10        -0.0241    1.0945    0.1133 H         1 <0>         0.0626
     33 H11         1.6170    2.1944    4.5655 H         1 <0>         0.1514
     34 H12        -0.4089   -1.5281    5.0423 H         1 <0>         0.1402
     35 H13        -0.2881   -0.2105    7.3674 H         1 <0>         0.1544
     36 H14         1.2172    0.0639    8.3083 H         1 <0>         0.1561
     37 H15        -0.2256    2.0244    8.3303 H         1 <0>         0.4820
     38 H16        -0.1845    2.0747    6.5352 H         1 <0>         0.4640
     39 H17         2.0164   -1.9109    4.1348 H         1 <0>         0.1361
     40 H18         3.3824   -0.9335    4.7716 H         1 <0>         0.1342
     41 H19         2.7361   -3.9096    5.2911 H         1 <0>         0.1040
     42 H20         4.3127   -3.1864    4.8240 H         1 <0>         0.1241
     43 H21         3.5936   -3.7107    7.4974 H         1 <0>         0.1145
     44 H22         4.7653   -2.4363    7.0182 H         1 <0>         0.1113
     45 H23         3.2529   -0.7850    7.6725 H         1 <0>         0.1316
     46 H24         2.0965   -2.0596    8.1870 H         1 <0>         0.1385
     47 H25         1.3781    4.6830    2.2523 H         1 <0>         0.1237
     48 H26         2.3009    3.2939    2.9197 H         1 <0>         0.0655
     49 H27         1.0487    4.1045    3.9206 H         1 <0>         0.0607
     50 H28         1.3208    2.3492    7.4761 H         1 <0>         0.4638
     51 H29         0.9266   -1.9582    6.2235 H         1 <0>         0.4495
@<TRIPOS>BOND
     1    1    2 1
     2    1   24 1
     3    1   25 1
     4    1   26 1
     5    2    3 1
     6    2   27 1
     7    2   28 1
     8    3    4 1
     9    3   29 1
    10    3   30 1
    11    4    5 1
    12    4   31 1
    13    4   32 1
    14    5    6 1
    15    6   11 ar
    16    6    7 ar
    17    7    8 ar
    18    7   22 1
    19    8    9 ar
    20    8   33 1
    21    9   10 ar
    22    9   13 1
    23   10   11 ar
    24   10   34 1
    25   11   12 1
    26   13   14 1
    27   13   15 1
    28   13   17 1
    29   15   16 1
    30   15   35 1
    31   15   36 1
    32   16   37 1
    33   16   38 1
    34   16   50 1
    35   17   21 1
    36   17   18 1
    37   17   51 1
    38   18   19 1
    39   18   39 1
    40   18   40 1
    41   19   20 1
    42   19   41 1
    43   19   42 1
    44   20   21 1
    45   20   43 1
    46   20   44 1
    47   21   45 1
    48   21   46 1
    49   22   23 1
    50   23   47 1
    51   23   48 1
    52   23   49 1
@<TRIPOS>MOLECULE
ZINC42954322
   46    47     0     0     0
SMALL
USER_CHARGES

@<TRIPOS>ATOM
      1 C1         -0.1594    1.2402   -0.4260 C.3       1 <0>        -0.1759
      2 C2         -0.0428   -0.2743   -0.2423 C.3       1 <0>        -0.1795
      3 C3          0.7301   -0.5739    1.0437 C.3       1 <0>         0.0087
      4 H1          0.2494   -0.0701    1.8823 H         1 <0>         0.1727
      5 C4          0.7394   -2.0835    1.2931 C.3       1 <0>         0.0652
      6 H2          1.2122   -2.2902    2.2532 H         1 <0>         0.1727
      7 C5          1.5111   -2.7692    0.1952 C.ar      1 <0>        -0.1848
      8 C6          0.9114   -3.0043   -1.0279 C.ar      1 <0>        -0.1091
      9 C7          1.6189   -3.6328   -2.0353 C.ar      1 <0>        -0.0683
     10 C8          2.9273   -4.0265   -1.8194 C.ar      1 <0>        -0.0562
     11 C9          3.5269   -3.7910   -0.5954 C.ar      1 <0>        -0.0709
     12 C10         2.8203   -3.1578    0.4097 C.ar      1 <0>        -0.0922
     13 Br1         3.8956   -4.8870   -3.1971 Br        1 <0>         0.0134
     14 N1         -0.6409   -2.5858    1.3087 N.4       1 <0>        -0.3816
     15 C11        -0.6319   -4.0351    1.5482 C.3       1 <0>        -0.0517
     16 C12        -1.3932   -1.9173    2.3789 C.3       1 <0>         0.0673
     17 C13        -2.8313   -2.3657    2.3376 C.2       1 <0>        -0.2626
     18 C14        -3.4513   -3.2895    3.2101 C.2       1 <0>        -0.2011
     19 C15        -4.7334   -3.3962    2.8175 C.2       1 <0>         0.0024
     20 O1         -4.9218   -2.5905    1.7596 O.3       1 <0>        -0.1513
     21 C16        -3.7730   -1.9593    1.4673 C.2       1 <0>         0.0462
     22 C17        -3.5721   -0.9667    0.3513 C.3       1 <0>        -0.1089
     23 N2          2.1110   -0.0913    0.9089 N.4       1 <0>        -0.6277
     24 H3          0.8375    1.6761   -0.4913 H         1 <0>         0.0662
     25 H4         -0.7100    1.4537   -1.3422 H         1 <0>         0.0994
     26 H5         -0.6888    1.6697    0.4245 H         1 <0>         0.0818
     27 H6         -1.0397   -0.7102   -0.1770 H         1 <0>         0.1006
     28 H7          0.4866   -0.7038   -1.0928 H         1 <0>         0.1151
     29 H8         -0.1102   -2.6972   -1.1963 H         1 <0>         0.1336
     30 H9          1.1502   -3.8168   -2.9907 H         1 <0>         0.1566
     31 H10         4.5484   -4.0982   -0.4264 H         1 <0>         0.1581
     32 H11         3.2898   -2.9702    1.3641 H         1 <0>         0.1501
     33 H12        -0.1454   -4.5384    0.7127 H         1 <0>         0.1281
     34 H13        -0.0869   -4.2480    2.4678 H         1 <0>         0.1322
     35 H14        -1.6568   -4.3943    1.6417 H         1 <0>         0.1385
     36 H15        -0.9593   -2.1767    3.3446 H         1 <0>         0.1507
     37 H16        -1.3449   -0.8376    2.2372 H         1 <0>         0.1327
     38 H17        -2.9847   -3.8101    4.0333 H         1 <0>         0.1642
     39 H18        -5.4839   -4.0236    3.2752 H         1 <0>         0.2202
     40 H19        -3.1778   -1.4805   -0.5254 H         1 <0>         0.0898
     41 H20        -4.5262   -0.5024    0.1018 H         1 <0>         0.1074
     42 H21        -2.8670   -0.1991    0.6703 H         1 <0>         0.0906
     43 H22         2.1048    0.9042    0.7444 H         1 <0>         0.4526
     44 H23         2.6206   -0.2890    1.7570 H         1 <0>         0.4449
     45 H24         2.5559   -0.5577    0.1326 H         1 <0>         0.4403
     46 H25        -1.0786   -2.3944    0.4200 H         1 <0>         0.4198
@<TRIPOS>BOND
     1    1    2 1
     2    1   24 1
     3    1   25 1
     4    1   26 1
     5    2    3 1
     6    2   27 1
     7    2   28 1
     8    3    4 1
     9    3    5 1
    10    3   23 1
    11    5    6 1
    12    5    7 1
    13    5   14 1
    14    7   12 ar
    15    7    8 ar
    16    8    9 ar
    17    8   29 1
    18    9   10 ar
    19    9   30 1
    20   10   11 ar
    21   10   13 1
    22   11   12 ar
    23   11   31 1
    24   12   32 1
    25   14   15 1
    26   14   16 1
    27   14   46 1
    28   15   33 1
    29   15   34 1
    30   15   35 1
    31   16   17 1
    32   16   36 1
    33   16   37 1
    34   17   21 2
    35   17   18 1
    36   18   19 2
    37   18   38 1
    38   19   20 1
    39   19   39 1
    40   20   21 1
    41   21   22 1
    42   22   40 1
    43   22   41 1
    44   22   42 1
    45   23   43 1
    46   23   44 1
    47   23   45 1
@<TRIPOS>MOLECULE
ZINC43254275
   39    40     0     0     0
SMALL
USER_CHARGES

@<TRIPOS>ATOM
      1 C1         -0.0187    1.5258    0.0104 C.3       1 <0>        -0.1731
      2 C2          0.0021   -0.0041    0.0020 C.3       1 <0>        -0.1754
      3 C3         -1.4333   -0.5336    0.0129 C.3       1 <0>         0.0104
      4 H1         -1.9862   -0.1019   -0.8214 H         1 <0>         0.1775
      5 C4         -1.4157   -2.0577   -0.1212 C.3       1 <0>         0.1248
      6 H2         -2.4379   -2.4271   -0.2028 H         1 <0>         0.1805
      7 C5         -0.7588   -2.6612    1.0934 C.2       1 <0>        -0.3400
      8 C6         -1.3343   -3.2273    2.1818 C.2       1 <0>        -0.0431
      9 C7         -0.5248   -3.7215    3.1880 C.2       1 <0>        -0.1694
     10 C8          0.8218   -3.6247    3.0550 C.2       1 <0>        -0.0475
     11 S1          0.9792   -2.8227    1.4678 S.3       1 <0>         0.1385
     12 Cl1         2.0684   -4.1503    4.1428 Cl        1 <0>         0.0815
     13 N1         -0.6613   -2.4347   -1.3240 N.4       1 <0>        -0.3823
     14 C9         -1.3016   -1.8464   -2.5080 C.3       1 <0>        -0.0615
     15 C10        -0.6444   -3.8979   -1.4528 C.3       1 <0>         0.0799
     16 C11         0.2308   -4.2898   -2.6154 C.2       1 <0>        -0.0170
     17 C12         1.5339   -4.6281   -2.4406 C.2       1 <0>        -0.2095
     18 S2          2.0119   -4.9779   -4.1251 S.3       1 <0>         0.2288
     19 C13         0.5292   -4.6618   -4.8563 C.2       1 <0>         0.0436
     20 N2         -0.2355   -4.3252   -3.8478 N.2       1 <0>        -0.5179
     21 N3         -2.0833   -0.1607    1.2764 N.4       1 <0>        -0.6270
     22 H3          1.0039    1.9031    0.0027 H         1 <0>         0.0985
     23 H4         -0.5459    1.8868   -0.8726 H         1 <0>         0.0821
     24 H5         -0.5289    1.8773    0.9072 H         1 <0>         0.0649
     25 H6          0.5123   -0.3556   -0.8948 H         1 <0>         0.1043
     26 H7          0.5293   -0.3651    0.8851 H         1 <0>         0.1101
     27 H8         -2.4094   -3.2913    2.2623 H         1 <0>         0.1618
     28 H9         -0.9578   -4.1772    4.0662 H         1 <0>         0.1710
     29 H10        -0.7418   -2.1261   -3.4005 H         1 <0>         0.1443
     30 H11        -2.3238   -2.2158   -2.5896 H         1 <0>         0.1394
     31 H12        -1.3142   -0.7606   -2.4125 H         1 <0>         0.1232
     32 H13        -0.2507   -4.3387   -0.5369 H         1 <0>         0.1451
     33 H14        -1.6584   -4.2594   -1.6232 H         1 <0>         0.1526
     34 H15         2.1192   -4.6731   -1.5340 H         1 <0>         0.2062
     35 H16         0.2702   -4.7252   -5.9029 H         1 <0>         0.2349
     36 H17        -2.0949    0.8443    1.3648 H         1 <0>         0.4529
     37 H18        -3.0299   -0.5100    1.2835 H         1 <0>         0.4452
     38 H19        -1.5715   -0.5604    2.0487 H         1 <0>         0.4392
     39 H20         0.2850   -2.0927   -1.2485 H         1 <0>         0.4225
@<TRIPOS>BOND
     1    1    2 1
     2    1   22 1
     3    1   23 1
     4    1   24 1
     5    2    3 1
     6    2   25 1
     7    2   26 1
     8    3    4 1
     9    3    5 1
    10    3   21 1
    11    5    6 1
    12    5    7 1
    13    5   13 1
    14    7   11 1
    15    7    8 2
    16    8    9 1
    17    8   27 1
    18    9   10 2
    19    9   28 1
    20   10   11 1
    21   10   12 1
    22   13   14 1
    23   13   15 1
    24   13   39 1
    25   14   29 1
    26   14   30 1
    27   14   31 1
    28   15   16 1
    29   15   32 1
    30   15   33 1
    31   16   20 1
    32   16   17 2
    33   17   18 1
    34   17   34 1
    35   18   19 1
    36   19   20 2
    37   19   35 1
    38   21   36 1
    39   21   37 1
    40   21   38 1
@<TRIPOS>MOLECULE
ZINC55063919
   51    52     0     0     0
SMALL
USER_CHARGES

@<TRIPOS>ATOM
      1 C1         -0.2810   -2.4238    0.7292 C.3       1 <0>        -0.1722
      2 C2         -1.4689   -2.1632   -0.1991 C.3       1 <0>        -0.1505
      3 C3         -1.8562   -0.6847   -0.1289 C.3       1 <0>         0.0247
      4 H1         -0.9834   -0.0697   -0.3481 H         1 <0>         0.1415
      5 C4         -2.9542   -0.3958   -1.1545 C.3       1 <0>        -0.1842
      6 N1         -2.3501   -0.3713    1.2186 N.4       1 <0>        -0.3855
      7 C5         -2.5883    1.0740    1.3286 C.3       1 <0>        -0.0063
      8 C6         -3.0850    1.4035    2.7380 C.3       1 <0>         0.0128
      9 N2         -4.3269    0.6633    3.0022 N.3       1 <0>        -0.5238
     10 C7         -4.1097   -0.7844    2.8712 C.3       1 <0>         0.0279
     11 C8         -3.6047   -1.0958    1.4607 C.3       1 <0>        -0.0138
     12 C9         -4.8669    0.9969    4.3270 C.3       1 <0>         0.1176
     13 H2         -4.1728    0.6611    5.0974 H         1 <0>         0.0876
     14 C10        -6.1958    0.3115    4.5149 C.ar      1 <0>        -0.1416
     15 C11        -7.0631    0.1808    3.4464 C.ar      1 <0>        -0.0807
     16 C12        -8.2819   -0.4481    3.6182 C.ar      1 <0>        -0.0861
     17 C13        -8.6337   -0.9468    4.8595 C.ar      1 <0>        -0.0695
     18 C14        -7.7656   -0.8157    5.9284 C.ar      1 <0>        -0.0814
     19 C15        -6.5448   -0.1913    5.7545 C.ar      1 <0>        -0.1208
     20 Br1       -10.3012   -1.8068    5.0953 Br        1 <0>        -0.0084
     21 C16        -5.0545    2.5115    4.4346 C.3       1 <0>         0.0296
     22 H3         -4.0824    3.0023    4.3871 H         1 <0>         0.1471
     23 C17        -5.9297    3.0005    3.2789 C.3       1 <0>        -0.1860
     24 N3         -5.7044    2.8349    5.7118 N.4       1 <0>        -0.6361
     25 H4         -0.0529   -3.4897    0.7369 H         1 <0>         0.0867
     26 H5          0.5870   -1.8690    0.3730 H         1 <0>         0.0756
     27 H6         -0.5307   -2.0984    1.7391 H         1 <0>         0.0439
     28 H7         -1.1933   -2.4184   -1.2223 H         1 <0>         0.1167
     29 H8         -2.3150   -2.7756    0.1129 H         1 <0>         0.0872
     30 H9         -3.2301    0.6575   -1.1046 H         1 <0>         0.0813
     31 H10        -2.5877   -0.6284   -2.1544 H         1 <0>         0.1094
     32 H11        -3.8270   -1.0109   -0.9353 H         1 <0>         0.0830
     33 H12        -1.6596    1.6110    1.1358 H         1 <0>         0.1418
     34 H13        -3.3401    1.3748    0.5989 H         1 <0>         0.1434
     35 H14        -2.3277    1.1152    3.4671 H         1 <0>         0.0712
     36 H15        -3.2760    2.4738    2.8153 H         1 <0>         0.1257
     37 H16        -3.3694   -1.1087    3.6025 H         1 <0>         0.0692
     38 H17        -5.0484   -1.3102    3.0458 H         1 <0>         0.1306
     39 H18        -4.3512   -0.7839    0.7304 H         1 <0>         0.1458
     40 H19        -3.4294   -2.1675    1.3660 H         1 <0>         0.1428
     41 H20        -6.7885    0.5705    2.4773 H         1 <0>         0.1475
     42 H21        -8.9595   -0.5498    2.7834 H         1 <0>         0.1454
     43 H22        -8.0398   -1.2050    6.8978 H         1 <0>         0.1468
     44 H23        -5.8652   -0.0926    6.5880 H         1 <0>         0.1356
     45 H24        -6.9347    2.5921    3.3862 H         1 <0>         0.0887
     46 H25        -5.9765    4.0894    3.2939 H         1 <0>         0.0878
     47 H26        -5.5016    2.6682    2.3331 H         1 <0>         0.1152
     48 H27        -6.6042    2.3806    5.7558 H         1 <0>         0.4355
     49 H28        -5.1272    2.5125    6.4740 H         1 <0>         0.4364
     50 H29        -5.8281    3.8338    5.7828 H         1 <0>         0.4453
     51 H30        -1.6628   -0.6514    1.9021 H         1 <0>         0.4197
@<TRIPOS>BOND
     1    1    2 1
     2    1   25 1
     3    1   26 1
     4    1   27 1
     5    2    3 1
     6    2   28 1
     7    2   29 1
     8    3    4 1
     9    3    5 1
    10    3    6 1
    11    5   30 1
    12    5   31 1
    13    5   32 1
    14    6   11 1
    15    6    7 1
    16    6   51 1
    17    7    8 1
    18    7   33 1
    19    7   34 1
    20    8    9 1
    21    8   35 1
    22    8   36 1
    23    9   10 1
    24    9   12 1
    25   10   11 1
    26   10   37 1
    27   10   38 1
    28   11   39 1
    29   11   40 1
    30   12   13 1
    31   12   14 1
    32   12   21 1
    33   14   19 ar
    34   14   15 ar
    35   15   16 ar
    36   15   41 1
    37   16   17 ar
    38   16   42 1
    39   17   18 ar
    40   17   20 1
    41   18   19 ar
    42   18   43 1
    43   19   44 1
    44   21   22 1
    45   21   23 1
    46   21   24 1
    47   23   45 1
    48   23   46 1
    49   23   47 1
    50   24   48 1
    51   24   49 1
    52   24   50 1
@<TRIPOS>MOLECULE
ZINC63720200
   47    50     0     0     0
SMALL
USER_CHARGES

@<TRIPOS>ATOM
      1 C1         -0.0167    1.3780    0.0096 C.ar      1 <0>        -0.1250
      2 C2          1.1706    2.0866    0.0021 C.ar      1 <0>        -0.0667
      3 C3          2.3773    1.4137   -0.0131 C.ar      1 <0>        -0.1509
      4 C4          2.3974    0.0291   -0.0207 C.ar      1 <0>         0.1203
      5 C5          1.2080   -0.6793   -0.0132 C.ar      1 <0>        -0.1361
      6 C6          0.0021   -0.0041    0.0020 C.ar      1 <0>        -0.0677
      7 C7          1.2281   -2.1862   -0.0220 C.3       1 <0>        -0.0563
      8 S1          1.2528   -2.8005    1.6846 S.3       1 <0>        -0.0713
      9 C8          1.2752   -4.6051    1.5011 C.3       1 <0>         0.0919
     10 H1          1.2786   -5.0841    2.4802 H         1 <0>         0.1478
     11 N1          0.1151   -5.0521    0.7193 N.2       1 <0>        -0.0944
     12 N2          0.4658   -5.8920   -0.1196 N.2       1 <0>        -0.1450
     13 C9          1.9118   -6.1297   -0.0217 C.3       1 <0>         0.1007
     14 H2          2.3597   -6.1503   -1.0152 H         1 <0>         0.1962
     15 O1          2.4290   -5.0163    0.7388 O.3       1 <0>        -0.3337
     16 C10         2.1850   -7.4452    0.7102 C.3       1 <0>         0.0271
     17 H3          3.2611   -7.5954    0.7980 H         1 <0>         0.1833
     18 C11         1.5709   -8.6042   -0.0775 C.3       1 <0>        -0.1028
     19 C12         1.9440   -9.9095    0.5766 C.2       1 <0>        -0.0078
     20 C13         1.2098  -10.6101    1.4707 C.ar      1 <0>        -0.1421
     21 C14        -0.1049  -10.3749    2.0796 C.ar      1 <0>        -0.0821
     22 C15        -0.5892  -11.2767    2.9635 C.ar      1 <0>        -0.0974
     23 C16         0.1314  -12.4273    3.3122 C.ar      1 <0>         0.0489
     24 C17         1.3453  -12.7120    2.7952 C.ar      1 <0>        -0.1921
     25 C18         1.9505  -11.8328    1.8553 C.ar      1 <0>         0.3316
     26 N3          3.0979  -11.8861    1.2235 N.pl3     1 <0>        -0.5601
     27 C19         3.2123  -10.7047    0.3610 C.3       1 <0>         0.0611
     28 N4          1.5869   -7.3930    2.0509 N.4       1 <0>        -0.6547
     29 F1          3.5766   -0.6299   -0.0360 F         1 <0>        -0.1330
     30 H4         -0.9594    1.9048    0.0260 H         1 <0>         0.1408
     31 H5          1.1547    3.1665    0.0077 H         1 <0>         0.1437
     32 H6          3.3046    1.9675   -0.0193 H         1 <0>         0.1451
     33 H7         -0.9259   -0.5565    0.0083 H         1 <0>         0.1380
     34 H8          0.3381   -2.5585   -0.5293 H         1 <0>         0.1054
     35 H9          2.1178   -2.5346   -0.5465 H         1 <0>         0.1041
     36 H10         0.4859   -8.5008   -0.0894 H         1 <0>         0.1419
     37 H11         1.9485   -8.5890   -1.0999 H         1 <0>         0.1686
     38 H12        -0.6768   -9.4947    1.8257 H         1 <0>         0.1597
     39 H13        -1.5564  -11.1056    3.4127 H         1 <0>         0.1686
     40 H14        -0.3024  -13.1139    4.0241 H         1 <0>         0.1723
     41 H15         1.8600  -13.6122    3.0972 H         1 <0>         0.1713
     42 H16         3.2940  -11.0059   -0.6834 H         1 <0>         0.1880
     43 H17         4.0806  -10.1131    0.6511 H         1 <0>         0.1786
     44 H18         1.7671   -8.2605    2.5335 H         1 <0>         0.4381
     45 H19         1.9919   -6.6287    2.5703 H         1 <0>         0.4460
     46 H20         3.7590  -12.5908    1.3089 H         1 <0>         0.4654
     47 H21         0.5908   -7.2540    1.9696 H         1 <0>         0.4349
@<TRIPOS>BOND
     1    1    6 ar
     2    1    2 ar
     3    1   30 1
     4    2    3 ar
     5    2   31 1
     6    3    4 ar
     7    3   32 1
     8    4    5 ar
     9    4   29 1
    10    5    6 ar
    11    5    7 1
    12    6   33 1
    13    7    8 1
    14    7   34 1
    15    7   35 1
    16    8    9 1
    17    9   10 1
    18    9   15 1
    19    9   11 1
    20   11   12 2
    21   12   13 1
    22   13   14 1
    23   13   15 1
    24   13   16 1
    25   16   17 1
    26   16   18 1
    27   16   28 1
    28   18   19 1
    29   18   36 1
    30   18   37 1
    31   19   27 1
    32   19   20 2
    33   20   25 ar
    34   20   21 ar
    35   21   22 ar
    36   21   38 1
    37   22   23 ar
    38   22   39 1
    39   23   24 ar
    40   23   40 1
    41   24   25 ar
    42   24   41 1
    43   25   26 2
    44   26   27 1
    45   26   46 1
    46   27   42 1
    47   27   43 1
    48   28   44 1
    49   28   45 1
    50   28   47 1
@<TRIPOS>MOLECULE
ZINC37621621
   50    50     0     0     0
SMALL
USER_CHARGES

@<TRIPOS>ATOM
      1 C1         -0.0187    1.5258    0.0104 C.3       1 <0>        -0.1612
      2 C2          0.0021   -0.0041    0.0020 C.3       1 <0>        -0.1376
      3 C3         -1.4333   -0.5336    0.0129 C.3       1 <0>        -0.1333
      4 C4         -1.4126   -2.0635    0.0045 C.3       1 <0>         0.0486
      5 C5         -0.6964   -2.5569   -1.2543 C.3       1 <0>        -0.1760
      6 C6         -2.8264   -2.5851    0.0152 C.2       1 <0>         0.5049
      7 O1         -3.7289   -1.8996   -0.4165 O.2       1 <0>        -0.4437
      8 N1         -3.0878   -3.8134    0.5044 N.am      1 <0>        -0.7389
      9 C7         -4.4622   -4.3205    0.5148 C.3       1 <0>         0.1382
     10 H1         -4.9894   -3.9594   -0.3683 H         1 <0>         0.1199
     11 C8         -4.4414   -5.8504    0.5064 C.3       1 <0>         0.0747
     12 N2         -3.8631   -6.3240   -0.7536 N.pl3     1 <0>        -0.4064
     13 C9         -4.5446   -6.5920   -1.9101 C.2       1 <0>         0.0330
     14 C10        -3.6331   -6.9992   -2.8140 C.2       1 <0>         0.0160
     15 N3         -2.4280   -6.9803   -2.2255 N.pl3     1 <0>        -0.4679
     16 C11        -2.5574   -6.5721   -0.9927 C.cat     1 <0>         0.2632
     17 C12        -5.1783   -3.8271    1.7736 C.3       1 <0>        -0.0744
     18 C13        -5.1991   -2.2973    1.7820 C.3       1 <0>        -0.1383
     19 C14        -6.6137   -4.3567    1.7844 C.3       1 <0>        -0.1568
     20 C15        -4.4383   -4.3339    3.0131 C.3       1 <0>        -0.1519
     21 N4         -0.7021   -2.5501    1.1946 N.4       1 <0>        -0.6361
     22 H2          1.0039    1.9031    0.0027 H         1 <0>         0.0727
     23 H3         -0.5459    1.8868   -0.8726 H         1 <0>         0.0684
     24 H4         -0.5289    1.8773    0.9072 H         1 <0>         0.0641
     25 H5          0.5123   -0.3556   -0.8948 H         1 <0>         0.0837
     26 H6          0.5293   -0.3651    0.8851 H         1 <0>         0.0587
     27 H7         -1.9435   -0.1821    0.9097 H         1 <0>         0.0987
     28 H8         -1.9605   -0.1726   -0.8702 H         1 <0>         0.1275
     29 H9          0.3262   -2.1796   -1.2621 H         1 <0>         0.1091
     30 H10        -0.6816   -3.6468   -1.2603 H         1 <0>         0.0779
     31 H11        -1.2236   -2.1958   -2.1374 H         1 <0>         0.1181
     32 H12        -2.3659   -4.3617    0.8496 H         1 <0>         0.3874
     33 H13        -3.8391   -6.2102    1.3405 H         1 <0>         0.1324
     34 H14        -5.4593   -6.2281    0.6036 H         1 <0>         0.1531
     35 H15        -5.6087   -6.4957   -2.0673 H         1 <0>         0.2280
     36 H16        -3.8369   -7.2899   -3.8339 H         1 <0>         0.2293
     37 H17        -1.7537   -6.4547   -0.2809 H         1 <0>         0.2510
     38 H18        -5.7262   -1.9362    0.8989 H         1 <0>         0.0723
     39 H19        -5.7093   -1.9457    2.6788 H         1 <0>         0.0697
     40 H20        -4.1765   -1.9200    1.7742 H         1 <0>         0.0427
     41 H21        -6.5989   -5.4466    1.7784 H         1 <0>         0.0611
     42 H22        -7.1239   -4.0052    2.6812 H         1 <0>         0.0796
     43 H23        -7.1409   -3.9956    0.9014 H         1 <0>         0.0689
     44 H24        -3.4157   -3.9567    3.0054 H         1 <0>         0.0469
     45 H25        -4.9485   -3.9824    3.9099 H         1 <0>         0.0787
     46 H26        -4.4235   -5.4238    3.0071 H         1 <0>         0.0615
     47 H27        -1.1743   -2.2247    2.0247 H         1 <0>         0.4431
     48 H28        -0.6884   -3.5590    1.1890 H         1 <0>         0.4242
     49 H29         0.2445   -2.2009    1.1874 H         1 <0>         0.4475
     50 H30        -1.5918   -7.2275   -2.6503 H         1 <0>         0.4676
@<TRIPOS>BOND
     1    1    2 1
     2    1   22 1
     3    1   23 1
     4    1   24 1
     5    2    3 1
     6    2   25 1
     7    2   26 1
     8    3    4 1
     9    3   27 1
    10    3   28 1
    11    4    5 1
    12    4    6 1
    13    4   21 1
    14    5   29 1
    15    5   30 1
    16    5   31 1
    17    6    7 2
    18    6    8 am
    19    8    9 1
    20    8   32 1
    21    9   10 1
    22    9   11 1
    23    9   17 1
    24   11   12 1
    25   11   33 1
    26   11   34 1
    27   12   16 1
    28   12   13 1
    29   13   14 2
    30   13   35 1
    31   14   15 1
    32   14   36 1
    33   15   16 2
    34   15   50 1
    35   16   37 1
    36   17   18 1
    37   17   19 1
    38   17   20 1
    39   18   38 1
    40   18   39 1
    41   18   40 1
    42   19   41 1
    43   19   42 1
    44   19   43 1
    45   20   44 1
    46   20   45 1
    47   20   46 1
    48   21   47 1
    49   21   48 1
    50   21   49 1
@<TRIPOS>MOLECULE
ZINC44803610
   52    52     0     0     0
SMALL
USER_CHARGES

@<TRIPOS>ATOM
      1 C1         -0.0187    1.5258    0.0104 C.3       1 <0>        -0.1619
      2 C2          0.0021   -0.0041    0.0020 C.3       1 <0>        -0.1339
      3 C3         -1.4333   -0.5336    0.0129 C.3       1 <0>        -0.1203
      4 C4         -1.4126   -2.0635    0.0045 C.3       1 <0>        -0.0986
      5 C5         -0.6964   -2.5569   -1.2543 C.3       1 <0>        -0.1115
      6 C6         -1.4364   -2.0501   -2.4939 C.3       1 <0>        -0.1271
      7 C7         -0.7203   -2.5435   -3.7527 C.3       1 <0>        -0.1579
      8 C8         -0.6726   -2.5703    1.2440 C.3       1 <0>        -0.0065
      9 N1         -1.3602   -2.0966    2.4526 N.4       1 <0>        -0.6407
     10 C9         -2.8264   -2.5851    0.0152 C.2       1 <0>         0.5049
     11 O1         -3.7588   -1.8096    0.0282 O.2       1 <0>        -0.4899
     12 N2         -3.0546   -3.9134    0.0102 N.am      1 <0>        -0.7276
     13 C10        -4.4290   -4.4205    0.0206 C.3       1 <0>         0.1253
     14 H1         -5.0561   -3.7600    0.6195 H         1 <0>         0.1144
     15 C11        -4.9653   -4.4738   -1.4128 C.3       1 <0>        -0.1517
     16 C12        -6.3724   -5.0780   -1.3988 C.3       1 <0>        -0.1446
     17 C13        -6.3211   -6.4614   -0.7470 C.3       1 <0>        -0.0128
     18 N3         -5.8255   -6.3398    0.6292 N.4       1 <0>        -0.3798
     19 C14        -4.4499   -5.8279    0.6208 C.3       1 <0>        -0.0185
     20 C15        -5.8517   -7.6586    1.2759 C.3       1 <0>        -0.0484
     21 H2          1.0039    1.9031    0.0027 H         1 <0>         0.0684
     22 H3         -0.5459    1.8868   -0.8726 H         1 <0>         0.0645
     23 H4         -0.5289    1.8773    0.9072 H         1 <0>         0.0575
     24 H5          0.5123   -0.3556   -0.8948 H         1 <0>         0.0823
     25 H6          0.5293   -0.3651    0.8851 H         1 <0>         0.0587
     26 H7         -1.9435   -0.1821    0.9097 H         1 <0>         0.0692
     27 H8         -1.9605   -0.1726   -0.8702 H         1 <0>         0.1058
     28 H9          0.3262   -2.1796   -1.2621 H         1 <0>         0.1000
     29 H10        -0.6816   -3.6468   -1.2603 H         1 <0>         0.0781
     30 H11        -2.4590   -2.4274   -2.4861 H         1 <0>         0.0592
     31 H12        -1.4512   -0.9602   -2.4879 H         1 <0>         0.0766
     32 H13         0.3023   -2.1662   -3.7604 H         1 <0>         0.0632
     33 H14        -0.7055   -3.6334   -3.7587 H         1 <0>         0.0560
     34 H15        -1.2475   -2.1824   -4.6357 H         1 <0>         0.0654
     35 H16        -0.6578   -3.6602    1.2380 H         1 <0>         0.1390
     36 H17         0.3500   -2.1930    1.2363 H         1 <0>         0.1592
     37 H18        -1.3738   -1.0877    2.4582 H         1 <0>         0.4415
     38 H19        -2.3068   -2.4458    2.4598 H         1 <0>         0.4274
     39 H20        -2.3089   -4.5336   -0.0002 H         1 <0>         0.4093
     40 H21        -5.0057   -3.4654   -1.8246 H         1 <0>         0.1007
     41 H22        -4.3090   -5.0926   -2.0247 H         1 <0>         0.0883
     42 H23        -7.0403   -4.4318   -0.8292 H         1 <0>         0.0932
     43 H24        -6.7389   -5.1706   -2.4212 H         1 <0>         0.1226
     44 H25        -7.3213   -6.8945   -0.7356 H         1 <0>         0.1405
     45 H26        -5.6532   -7.1068   -1.3175 H         1 <0>         0.1331
     46 H27        -3.8217   -6.4872    0.0219 H         1 <0>         0.1369
     47 H28        -4.0688   -5.7928    1.6414 H         1 <0>         0.1343
     48 H29        -5.2166   -8.3484    0.7201 H         1 <0>         0.1254
     49 H30        -5.4838   -7.5694    2.2980 H         1 <0>         0.1255
     50 H31        -6.8740   -8.0364    1.2893 H         1 <0>         0.1323
     51 H32        -6.4163   -5.7036    1.1434 H         1 <0>         0.4276
     52 H33        -0.8721   -2.4308    3.2700 H         1 <0>         0.4454
@<TRIPOS>BOND
     1    1    2 1
     2    1   21 1
     3    1   22 1
     4    1   23 1
     5    2    3 1
     6    2   24 1
     7    2   25 1
     8    3    4 1
     9    3   26 1
    10    3   27 1
    11    4    5 1
    12    4    8 1
    13    4   10 1
    14    5    6 1
    15    5   28 1
    16    5   29 1
    17    6    7 1
    18    6   30 1
    19    6   31 1
    20    7   32 1
    21    7   33 1
    22    7   34 1
    23    8    9 1
    24    8   35 1
    25    8   36 1
    26    9   37 1
    27    9   38 1
    28    9   52 1
    29   10   11 2
    30   10   12 am
    31   12   13 1
    32   12   39 1
    33   13   14 1
    34   13   19 1
    35   13   15 1
    36   15   16 1
    37   15   40 1
    38   15   41 1
    39   16   17 1
    40   16   42 1
    41   16   43 1
    42   17   18 1
    43   17   44 1
    44   17   45 1
    45   18   19 1
    46   18   20 1
    47   18   51 1
    48   19   46 1
    49   19   47 1
    50   20   48 1
    51   20   49 1
    52   20   50 1
@<TRIPOS>MOLECULE
ZINC45281672
   55    55     0     0     0
SMALL
USER_CHARGES

@<TRIPOS>ATOM
      1 C1         -0.8719    1.0205   -0.3458 C.3       1 <0>        -0.1600
      2 C2         -0.5743   -0.4802   -0.3308 C.3       1 <0>        -0.1467
      3 C3          0.1268   -0.8481    0.9784 C.3       1 <0>        -0.0280
      4 N1          0.4125   -2.2889    0.9928 N.4       1 <0>        -0.5030
      5 C4          1.0856   -2.6421    2.2498 C.3       1 <0>         0.0487
      6 C5          0.1784   -2.2903    3.4305 C.3       1 <0>        -0.1815
      7 C6          1.3832   -4.1428    2.2648 C.3       1 <0>        -0.1714
      8 C7          2.0843   -4.5107    3.5740 C.3       1 <0>        -0.0130
      9 N2          2.3700   -5.9516    3.5884 N.4       1 <0>        -0.3844
     10 C8          3.3353   -6.2700    2.5278 C.3       1 <0>        -0.0625
     11 C9          2.9338   -6.3260    4.8922 C.3       1 <0>        -0.0094
     12 C10         3.1016   -7.8454    4.9579 C.3       1 <0>        -0.1136
     13 C11         3.8123   -8.2242    6.2588 C.3       1 <0>        -0.1122
     14 C12         3.9801   -9.7435    6.3245 C.3       1 <0>        -0.1234
     15 C13         2.6040  -10.4109    6.2822 C.3       1 <0>        -0.1284
     16 C14         1.8933  -10.0321    4.9814 C.3       1 <0>        -0.1211
     17 C15         1.7255   -8.5128    4.9156 C.3       1 <0>        -0.1266
     18 C16         2.3767   -1.8729    2.3616 C.2       1 <0>         0.5015
     19 O1          2.7632   -1.4913    3.4460 O.2       1 <0>        -0.4655
     20 N3          3.1017   -1.6089    1.2566 N.am      1 <0>        -0.8442
     21 H1          0.0619    1.5769   -0.2649 H         1 <0>         0.0690
     22 H2         -1.3714    1.2826   -1.2785 H         1 <0>         0.0851
     23 H3         -1.5182    1.2712    0.4954 H         1 <0>         0.0705
     24 H4         -1.5081   -1.0366   -0.4117 H         1 <0>         0.0925
     25 H5          0.0720   -0.7308   -1.1720 H         1 <0>         0.0895
     26 H6          1.0606   -0.2917    1.0593 H         1 <0>         0.1342
     27 H7         -0.5196   -0.5974    1.8195 H         1 <0>         0.1456
     28 H8         -0.4519   -2.8040    0.9179 H         1 <0>         0.4402
     29 H9         -0.7554   -2.8467    3.3496 H         1 <0>         0.1043
     30 H10         0.6778   -2.5524    4.3632 H         1 <0>         0.1192
     31 H11        -0.0336   -1.2212    3.4198 H         1 <0>         0.1033
     32 H12         0.4494   -4.6992    2.1839 H         1 <0>         0.1305
     33 H13         2.0295   -4.3935    1.4236 H         1 <0>         0.1178
     34 H14         3.0181   -3.9543    3.6549 H         1 <0>         0.1428
     35 H15         1.4379   -4.2601    4.4151 H         1 <0>         0.1496
     36 H16         2.9262   -5.9716    1.5626 H         1 <0>         0.1203
     37 H17         4.2657   -5.7322    2.7100 H         1 <0>         0.1286
     38 H18         3.5302   -7.3424    2.5240 H         1 <0>         0.1362
     39 H19         3.9048   -5.8474    5.0191 H         1 <0>         0.1360
     40 H20         2.2615   -6.0000    5.6859 H         1 <0>         0.1363
     41 H21         3.6951   -8.1825    4.1081 H         1 <0>         0.0962
     42 H22         4.7927   -7.7487    6.2889 H         1 <0>         0.0751
     43 H23         3.2188   -7.8871    7.1086 H         1 <0>         0.0761
     44 H24         4.5737  -10.0806    5.4747 H         1 <0>         0.0674
     45 H25         4.4865  -10.0134    7.2513 H         1 <0>         0.0778
     46 H26         2.7236  -11.4933    6.3291 H         1 <0>         0.0746
     47 H27         2.0105  -10.0738    7.1320 H         1 <0>         0.0679
     48 H28         2.4868  -10.3692    4.1316 H         1 <0>         0.0675
     49 H29         0.9129  -10.5076    4.9513 H         1 <0>         0.0749
     50 H30         1.1319   -8.1757    5.7654 H         1 <0>         0.0803
     51 H31         1.2191   -8.2429    3.9889 H         1 <0>         0.0513
     52 H32         2.7925   -1.9141    0.3893 H         1 <0>         0.3992
     53 H33         3.9327   -1.1138    1.3286 H         1 <0>         0.4340
     54 H34         1.5160   -6.4654    3.4312 H         1 <0>         0.4256
     55 H35         1.0108   -2.5210    0.2141 H         1 <0>         0.4253
@<TRIPOS>BOND
     1    1    2 1
     2    1   21 1
     3    1   22 1
     4    1   23 1
     5    2    3 1
     6    2   24 1
     7    2   25 1
     8    3    4 1
     9    3   26 1
    10    3   27 1
    11    4    5 1
    12    4   28 1
    13    4   55 1
    14    5    6 1
    15    5    7 1
    16    5   18 1
    17    6   29 1
    18    6   30 1
    19    6   31 1
    20    7    8 1
    21    7   32 1
    22    7   33 1
    23    8    9 1
    24    8   34 1
    25    8   35 1
    26    9   10 1
    27    9   11 1
    28    9   54 1
    29   10   36 1
    30   10   37 1
    31   10   38 1
    32   11   12 1
    33   11   39 1
    34   11   40 1
    35   12   17 1
    36   12   13 1
    37   12   41 1
    38   13   14 1
    39   13   42 1
    40   13   43 1
    41   14   15 1
    42   14   44 1
    43   14   45 1
    44   15   16 1
    45   15   46 1
    46   15   47 1
    47   16   17 1
    48   16   48 1
    49   16   49 1
    50   17   50 1
    51   17   51 1
    52   18   19 2
    53   18   20 am
    54   20   52 1
    55   20   53 1
@<TRIPOS>MOLECULE
ZINC45419322
   56    57     0     0     0
SMALL
USER_CHARGES

@<TRIPOS>ATOM
      1 C1         -0.0187    1.5258    0.0104 C.3       1 <0>        -0.1737
      2 C2          0.0021   -0.0041    0.0020 C.3       1 <0>         0.0392
      3 C3          0.7421   -0.5109    1.2415 C.3       1 <0>        -0.1360
      4 C4          0.0259   -0.0175    2.5003 C.3       1 <0>        -0.1224
      5 C5          0.7659   -0.5243    3.7399 C.3       1 <0>        -0.1486
      6 C6          0.0498   -0.0309    4.9987 C.3       1 <0>        -0.0114
      7 N1          0.7603   -0.5175    6.1888 N.4       1 <0>        -0.3809
      8 C7          0.6858   -1.9824    6.2357 C.3       1 <0>        -0.0146
      9 C8          1.4871   -2.5025    7.4313 C.3       1 <0>        -0.1416
     10 C9          0.8980   -1.9196    8.7211 C.3       1 <0>        -0.0994
     11 H1          1.4909   -2.2461    9.5754 H         1 <0>         0.1051
     12 C10        -0.5434   -2.4099    8.8771 C.3       1 <0>        -0.1210
     13 C11        -1.1577   -1.8048   10.1405 C.3       1 <0>        -0.1284
     14 C12        -1.1544   -0.2788   10.0265 C.3       1 <0>        -0.1268
     15 C13         0.2858    0.2150    9.8771 C.3       1 <0>        -0.1158
     16 C14         0.9258   -0.3917    8.6286 C.3       1 <0>        -0.0982
     17 H2          1.9581   -0.0538    8.5378 H         1 <0>         0.0943
     18 C15         0.1436    0.0539    7.3923 C.3       1 <0>        -0.0118
     19 C16        -1.4117   -0.5257    0.0127 C.2       1 <0>         0.5094
     20 O1         -2.3058    0.1551    0.4688 O.2       1 <0>        -0.4730
     21 N2         -1.6826   -1.7487   -0.4846 N.am      1 <0>        -0.8494
     22 N3          0.6897   -0.4778   -1.2066 N.4       1 <0>        -0.5034
     23 C17        -0.0208    0.0088   -2.3967 C.3       1 <0>        -0.0647
     24 H3          1.0039    1.9031    0.0027 H         1 <0>         0.0974
     25 H4         -0.5459    1.8868   -0.8726 H         1 <0>         0.0938
     26 H5         -0.5289    1.8773    0.9072 H         1 <0>         0.1183
     27 H6          0.7568   -1.6008    1.2356 H         1 <0>         0.0971
     28 H7          1.7647   -0.1336    1.2338 H         1 <0>         0.1102
     29 H8          0.0111    1.0724    2.5063 H         1 <0>         0.0949
     30 H9         -0.9967   -0.3948    2.5081 H         1 <0>         0.0883
     31 H10         0.7807   -1.6142    3.7339 H         1 <0>         0.0913
     32 H11         1.7885   -0.1470    3.7321 H         1 <0>         0.0938
     33 H12         0.0350    1.0590    5.0047 H         1 <0>         0.1340
     34 H13        -0.9728   -0.4082    5.0064 H         1 <0>         0.1305
     35 H14        -0.3552   -2.2895    6.3358 H         1 <0>         0.1302
     36 H15         1.0982   -2.3961    5.3154 H         1 <0>         0.1274
     37 H16         1.4293   -3.5905    7.4634 H         1 <0>         0.1142
     38 H17         2.5281   -2.1943    7.3343 H         1 <0>         0.0892
     39 H18        -1.1266   -2.1050    8.0081 H         1 <0>         0.0553
     40 H19        -0.5505   -3.4971    8.9550 H         1 <0>         0.0780
     41 H20        -2.1825   -2.1589   10.2519 H         1 <0>         0.0733
     42 H21        -0.5723   -2.1057   11.0093 H         1 <0>         0.0737
     43 H22        -1.7344    0.0220    9.1540 H         1 <0>         0.0591
     44 H23        -1.5960    0.1539   10.9242 H         1 <0>         0.0789
     45 H24         0.2900    1.3019    9.7952 H         1 <0>         0.0765
     46 H25         0.8645   -0.0846   10.7508 H         1 <0>         0.0857
     47 H26         0.1580    1.1418    7.3262 H         1 <0>         0.1314
     48 H27        -0.8873   -0.2912    7.4710 H         1 <0>         0.1335
     49 H28        -0.9675   -2.2932   -0.8494 H         1 <0>         0.3974
     50 H29        -2.5926   -2.0845   -0.4777 H         1 <0>         0.4294
     51 H30         1.6363   -0.1286   -1.2138 H         1 <0>         0.4402
     52 H31        -1.0434   -0.3685   -2.3890 H         1 <0>         0.1240
     53 H32        -0.0356    1.0987   -2.3907 H         1 <0>         0.1361
     54 H33         0.4894   -0.3427   -3.2935 H         1 <0>         0.1427
     55 H34         1.7274   -0.2339    6.1409 H         1 <0>         0.4215
     56 H35         0.7033   -1.4867   -1.2121 H         1 <0>         0.4257
@<TRIPOS>BOND
     1    1    2 1
     2    1   24 1
     3    1   25 1
     4    1   26 1
     5    2    3 1
     6    2   19 1
     7    2   22 1
     8    3    4 1
     9    3   27 1
    10    3   28 1
    11    4    5 1
    12    4   29 1
    13    4   30 1
    14    5    6 1
    15    5   31 1
    16    5   32 1
    17    6    7 1
    18    6   33 1
    19    6   34 1
    20    7   18 1
    21    7    8 1
    22    7   55 1
    23    8    9 1
    24    8   35 1
    25    8   36 1
    26    9   10 1
    27    9   37 1
    28    9   38 1
    29   10   11 1
    30   10   16 1
    31   10   12 1
    32   12   13 1
    33   12   39 1
    34   12   40 1
    35   13   14 1
    36   13   41 1
    37   13   42 1
    38   14   15 1
    39   14   43 1
    40   14   44 1
    41   15   16 1
    42   15   45 1
    43   15   46 1
    44   16   17 1
    45   16   18 1
    46   18   47 1
    47   18   48 1
    48   19   20 2
    49   19   21 am
    50   21   49 1
    51   21   50 1
    52   22   23 1
    53   22   51 1
    54   22   56 1
    55   23   52 1
    56   23   53 1
    57   23   54 1
@<TRIPOS>MOLECULE
ZINC55138096
   55    55     0     0     0
SMALL
USER_CHARGES

@<TRIPOS>ATOM
      1 C1         -0.5167    0.4165   -0.0073 C.3       1 <0>        -0.1550
      2 C2         -0.0672   -1.0040   -0.3551 C.3       1 <0>        -0.0843
      3 C3         -1.2876   -1.8482   -0.7280 C.3       1 <0>        -0.1546
      4 C4          0.9013   -0.9572   -1.5386 C.3       1 <0>        -0.1279
      5 C5          2.1762   -0.2190   -1.1253 C.3       1 <0>         0.1120
      6 H1          1.9162    0.7658   -0.7372 H         1 <0>         0.1266
      7 C6          3.0918   -0.0626   -2.3410 C.3       1 <0>        -0.0228
      8 N1          4.3462    0.5818   -1.9297 N.4       1 <0>        -0.3856
      9 C7          5.2709    0.6262   -3.0702 C.3       1 <0>        -0.0500
     10 C8          4.0669    1.9496   -1.4722 C.3       1 <0>        -0.0554
     11 N2          2.8696   -0.9856   -0.0871 N.am      1 <0>        -0.7476
     12 C9          2.7451   -0.6326    1.2076 C.2       1 <0>         0.5147
     13 O1          2.0591    0.3197    1.5133 O.2       1 <0>        -0.5052
     14 C10         3.4584   -1.4212    2.2755 C.3       1 <0>        -0.1415
     15 C11         3.1518   -0.8159    3.6469 C.3       1 <0>        -0.0671
     16 H2          2.0723   -0.7682    3.7898 H         1 <0>         0.0941
     17 C12         3.7394    0.5946    3.7248 C.3       1 <0>        -0.1287
     18 C13         3.4328    1.1998    5.0961 C.3       1 <0>        -0.1168
     19 C14         4.0539    0.3275    6.1890 C.3       1 <0>        -0.1446
     20 C15         3.4663   -1.0830    6.1111 C.3       1 <0>         0.0274
     21 H3          2.3867   -1.0353    6.2540 H         1 <0>         0.1432
     22 C16         3.7729   -1.6882    4.7397 C.3       1 <0>        -0.1414
     23 N3          4.0626   -1.9205    7.1603 N.4       1 <0>        -0.6377
     24 H4          0.3527    1.0179    0.2583 H         1 <0>         0.0659
     25 H5         -1.0163    0.8606   -0.8684 H         1 <0>         0.0544
     26 H6         -1.2067    0.3831    0.8358 H         1 <0>         0.0572
     27 H7          0.4323   -1.4481    0.5059 H         1 <0>         0.0647
     28 H8         -1.7872   -1.4041   -1.5890 H         1 <0>         0.0604
     29 H9         -0.9674   -2.8602   -0.9757 H         1 <0>         0.0555
     30 H10        -1.9776   -1.8816    0.1151 H         1 <0>         0.0607
     31 H11         1.1523   -1.9732   -1.8431 H         1 <0>         0.0783
     32 H12         0.4322   -0.4336   -2.3715 H         1 <0>         0.0878
     33 H13         3.3087   -1.0447   -2.7613 H         1 <0>         0.1382
     34 H14         2.5965    0.5526   -3.0922 H         1 <0>         0.1482
     35 H15         6.1716    1.1707   -2.7868 H         1 <0>         0.1268
     36 H16         5.5371   -0.3898   -3.3619 H         1 <0>         0.1252
     37 H17         4.7901    1.1306   -3.9084 H         1 <0>         0.1267
     38 H18         3.3808    1.9166   -0.6259 H         1 <0>         0.1224
     39 H19         4.9976    2.4277   -1.1670 H         1 <0>         0.1263
     40 H20         3.6151    2.5192   -2.2843 H         1 <0>         0.1280
     41 H21         3.4182   -1.7473   -0.3316 H         1 <0>         0.4059
     42 H22         3.1182   -2.4564    2.2510 H         1 <0>         0.1046
     43 H23         4.5329   -1.3874    2.0955 H         1 <0>         0.1003
     44 H24         4.8190    0.5468    3.5818 H         1 <0>         0.0636
     45 H25         3.2970    1.2160    2.9462 H         1 <0>         0.0936
     46 H26         3.8515    2.2046    5.1516 H         1 <0>         0.0861
     47 H27         2.3533    1.2475    5.2391 H         1 <0>         0.0774
     48 H28         5.1334    0.2797    6.0460 H         1 <0>         0.0875
     49 H29         3.8355    0.7586    7.1659 H         1 <0>         0.0912
     50 H30         3.3542   -2.6931    4.6842 H         1 <0>         0.0910
     51 H31         4.8524   -1.7360    4.5968 H         1 <0>         0.0899
     52 H32         3.8604   -1.5214    8.0647 H         1 <0>         0.4397
     53 H33         3.6751   -2.8507    7.1090 H         1 <0>         0.4371
     54 H34         5.0619   -1.9647    7.0280 H         1 <0>         0.4334
     55 H35         4.7644    0.0546   -1.1779 H         1 <0>         0.4199
@<TRIPOS>BOND
     1    1    2 1
     2    1   24 1
     3    1   25 1
     4    1   26 1
     5    2    3 1
     6    2    4 1
     7    2   27 1
     8    3   28 1
     9    3   29 1
    10    3   30 1
    11    4    5 1
    12    4   31 1
    13    4   32 1
    14    5    6 1
    15    5    7 1
    16    5   11 1
    17    7    8 1
    18    7   33 1
    19    7   34 1
    20    8    9 1
    21    8   10 1
    22    8   55 1
    23    9   35 1
    24    9   36 1
    25    9   37 1
    26   10   38 1
    27   10   39 1
    28   10   40 1
    29   11   12 am
    30   11   41 1
    31   12   13 2
    32   12   14 1
    33   14   15 1
    34   14   42 1
    35   14   43 1
    36   15   16 1
    37   15   22 1
    38   15   17 1
    39   17   18 1
    40   17   44 1
    41   17   45 1
    42   18   19 1
    43   18   46 1
    44   18   47 1
    45   19   20 1
    46   19   48 1
    47   19   49 1
    48   20   21 1
    49   20   22 1
    50   20   23 1
    51   22   50 1
    52   22   51 1
    53   23   52 1
    54   23   53 1
    55   23   54 1
@<TRIPOS>MOLECULE
ZINC19877431
   41    42     0     0     0
SMALL
USER_CHARGES
2-[[(2,4-dimethylphenyl)amino]methyl]-6-ethoxy-phenol
@<TRIPOS>ATOM
      1 C1         -0.0187    1.5258    0.0104 C.3       1 <0>        -0.1542
      2 C2          0.0021   -0.0041    0.0020 C.3       1 <0>         0.0515
      3 O1          0.6709   -0.4649   -1.1737 O.3       1 <0>        -0.3050
      4 C3          0.7768   -1.8109   -1.3363 C.ar      1 <0>         0.0894
      5 C4          0.2485   -2.6689   -0.3850 C.ar      1 <0>        -0.1634
      6 C5          0.3571   -4.0369   -0.5518 C.ar      1 <0>        -0.1241
      7 C6          0.9921   -4.5523   -1.6665 C.ar      1 <0>        -0.0966
      8 C7          1.5214   -3.7019   -2.6192 C.ar      1 <0>        -0.1690
      9 C8          1.4109   -2.3297   -2.4610 C.ar      1 <0>         0.1484
     10 O2          1.9261   -1.4918   -3.4002 O.3       1 <0>        -0.4945
     11 C9          2.2129   -4.2672   -3.8330 C.3       1 <0>         0.1726
     12 N1          3.6637   -4.2157   -3.6367 N.pl3     1 <0>        -0.7573
     13 C10         4.5206   -4.6875   -4.6338 C.ar      1 <0>         0.2144
     14 C11         3.9986   -5.2059   -5.8123 C.ar      1 <0>        -0.1954
     15 C12         4.8485   -5.6710   -6.7962 C.ar      1 <0>        -0.0764
     16 C13         6.2180   -5.6208   -6.6096 C.ar      1 <0>        -0.1426
     17 C14         6.7408   -5.1054   -5.4380 C.ar      1 <0>        -0.0723
     18 C15         5.8965   -4.6340   -4.4517 C.ar      1 <0>        -0.1575
     19 C16         6.4673   -4.0668   -3.1776 C.3       1 <0>        -0.1091
     20 C17         7.1425   -6.1284   -7.6861 C.3       1 <0>        -0.1091
     21 H1         -0.5335    1.8805    0.9155 H         1 <0>         0.0799
     22 H2         -0.5508    1.8901   -0.8807 H         1 <0>         0.0673
     23 H3          1.0133    1.9066    0.0025 H         1 <0>         0.0673
     24 H4          0.5342   -0.3684    0.8931 H         1 <0>         0.0616
     25 H5         -1.0299   -0.3849    0.0099 H         1 <0>         0.0617
     26 H6         -0.2477   -2.2689    0.4868 H         1 <0>         0.1346
     27 H7         -0.0548   -4.7046    0.1905 H         1 <0>         0.1285
     28 H8          1.0752   -5.6216   -1.7930 H         1 <0>         0.1271
     29 H9          2.4271   -1.9032   -4.2888 H         1 <0>         0.4278
     30 H10         1.8997   -5.3113   -3.9804 H         1 <0>         0.0751
     31 H11         1.9415   -3.6744   -4.7190 H         1 <0>         0.0632
     32 H12         4.0783   -3.8055   -2.7041 H         1 <0>         0.4207
     33 H13         2.9293   -5.2448   -5.9589 H         1 <0>         0.1184
     34 H14         4.4434   -6.0742   -7.7126 H         1 <0>         0.1183
     35 H15         7.8107   -5.0676   -5.2955 H         1 <0>         0.1188
     36 H16         7.5658   -4.1084   -3.2176 H         1 <0>         0.0664
     37 H17         6.1090   -4.6565   -2.3209 H         1 <0>         0.0623
     38 H18         6.1438   -3.0216   -3.0643 H         1 <0>         0.0631
     39 H19         8.1861   -6.0074   -7.3602 H         1 <0>         0.0608
     40 H20         6.9783   -5.5554   -8.6106 H         1 <0>         0.0636
     41 H21         6.9378   -7.1929   -7.8732 H         1 <0>         0.0634
@<TRIPOS>BOND
     1    1    2 1
     2    1   21 1
     3    1   22 1
     4    1   23 1
     5    2    3 1
     6    2   24 1
     7    2   25 1
     8    3    4 1
     9    4    9 ar
    10    4    5 ar
    11    5    6 ar
    12    5   26 1
    13    6    7 ar
    14    6   27 1
    15    7    8 ar
    16    7   28 1
    17    8    9 ar
    18    8   11 1
    19    9   10 1
    20   10   29 1
    21   11   12 1
    22   11   30 1
    23   11   31 1
    24   12   13 1
    25   12   32 1
    26   13   18 ar
    27   13   14 ar
    28   14   15 ar
    29   14   33 1
    30   15   16 ar
    31   15   34 1
    32   16   17 ar
    33   16   20 1
    34   17   18 ar
    35   17   35 1
    36   18   19 1
    37   19   36 1
    38   19   37 1
    39   19   38 1
    40   20   39 1
    41   20   40 1
    42   20   41 1
@<TRIPOS>MOLECULE
ZINC37092166
   38    39     0     0     0
SMALL
USER_CHARGES

@<TRIPOS>ATOM
      1 C1         -0.0187    1.5258    0.0104 C.3       1 <0>        -0.1524
      2 C2          0.0021   -0.0041    0.0020 C.3       1 <0>         0.0561
      3 O1          0.6709   -0.4649   -1.1737 O.3       1 <0>        -0.3156
      4 C3          0.7768   -1.8111   -1.3363 C.ar      1 <0>         0.0871
      5 C4          0.2437   -2.6687   -0.3881 C.ar      1 <0>        -0.1985
      6 C5          0.3524   -4.0388   -0.5551 C.ar      1 <0>         0.0767
      7 C6          0.9933   -4.5545   -1.6686 C.ar      1 <0>        -0.1361
      8 C7          1.5278   -3.7036   -2.6180 C.ar      1 <0>        -0.1432
      9 C8          1.4166   -2.3302   -2.4594 C.ar      1 <0>         0.1894
     10 N1          1.9523   -1.4666   -3.4239 N.pl3     1 <0>        -0.7348
     11 C9          2.6249   -2.0141   -4.6046 C.3       1 <0>         0.1912
     12 H1          3.1564   -2.9253   -4.3302 H         1 <0>         0.0887
     13 C10         1.5857   -2.3344   -5.6809 C.3       1 <0>        -0.1661
     14 C11         3.6055   -1.0020   -5.1386 C.ar      1 <0>        -0.0742
     15 C12         3.2713    0.3397   -5.1591 C.ar      1 <0>        -0.1207
     16 C13         4.1687    1.2706   -5.6483 C.ar      1 <0>        -0.0977
     17 C14         5.4020    0.8623   -6.1185 C.ar      1 <0>        -0.1443
     18 C15         5.7397   -0.4830   -6.0991 C.ar      1 <0>         0.1097
     19 C16         4.8396   -1.4147   -5.6019 C.ar      1 <0>        -0.1349
     20 O2          6.9522   -0.8872   -6.5610 O.3       1 <0>        -0.4987
     21 F1         -0.1676   -4.8741    0.3706 F         1 <0>        -0.1421
     22 H2          1.0039    1.9031    0.0027 H         1 <0>         0.0663
     23 H3         -0.5459    1.8868   -0.8726 H         1 <0>         0.0664
     24 H4         -0.5289    1.8773    0.9072 H         1 <0>         0.0797
     25 H5          0.5293   -0.3651    0.8851 H         1 <0>         0.0625
     26 H6         -1.0205   -0.3814    0.0098 H         1 <0>         0.0626
     27 H7         -0.2564   -2.2686    0.4815 H         1 <0>         0.1392
     28 H8          1.0763   -5.6238   -1.7957 H         1 <0>         0.1364
     29 H9          2.0276   -4.1082   -3.4856 H         1 <0>         0.1389
     30 H10         1.8779   -0.5062   -3.3099 H         1 <0>         0.4058
     31 H11         1.0542   -1.4232   -5.9554 H         1 <0>         0.0621
     32 H12         2.0861   -2.7417   -6.5594 H         1 <0>         0.0676
     33 H13         0.8764   -3.0664   -5.2947 H         1 <0>         0.0660
     34 H14         2.3075    0.6608   -4.7926 H         1 <0>         0.1241
     35 H15         3.9053    2.3179   -5.6633 H         1 <0>         0.1294
     36 H16         6.1024    1.5898   -6.5013 H         1 <0>         0.1300
     37 H17         5.1020   -2.4621   -5.5813 H         1 <0>         0.1309
     38 H18         7.6438   -0.9069   -5.8854 H         1 <0>         0.3927
@<TRIPOS>BOND
     1    1    2 1
     2    1   22 1
     3    1   23 1
     4    1   24 1
     5    2    3 1
     6    2   25 1
     7    2   26 1
     8    3    4 1
     9    4    9 ar
    10    4    5 ar
    11    5    6 ar
    12    5   27 1
    13    6    7 ar
    14    6   21 1
    15    7    8 ar
    16    7   28 1
    17    8    9 ar
    18    8   29 1
    19    9   10 1
    20   10   11 1
    21   10   30 1
    22   11   12 1
    23   11   13 1
    24   11   14 1
    25   13   31 1
    26   13   32 1
    27   13   33 1
    28   14   19 ar
    29   14   15 ar
    30   15   16 ar
    31   15   34 1
    32   16   17 ar
    33   16   35 1
    34   17   18 ar
    35   17   36 1
    36   18   19 ar
    37   18   20 1
    38   19   37 1
    39   20   38 1
@<TRIPOS>MOLECULE
ZINC13878997
   43    44     0     0     0
SMALL
USER_CHARGES

@<TRIPOS>ATOM
      1 C1         -0.0105    1.5184    0.0051 C.3       1 <0>        -0.1649
      2 C2          0.0046   -0.0115    0.0017 C.3       1 <0>         0.1405
      3 C3          0.7416   -0.5171    1.2435 C.3       1 <0>        -0.1624
      4 N1         -1.3717   -0.5134    0.0124 N.pl3     1 <0>        -0.6912
      5 C4         -2.0594   -0.6481   -1.1613 C.cat     1 <0>         0.5516
      6 N2         -3.3446   -1.1169   -1.1513 N.pl3     1 <0>        -0.5645
      7 N3         -4.0494   -1.2549   -2.3542 N.2       1 <0>        -0.2025
      8 C5         -5.2138   -1.7868   -2.3565 C.2       1 <0>         0.1107
      9 C6         -5.8959   -2.1659   -1.0606 C.3       1 <0>        -0.1230
     10 C7         -6.3621   -3.6220   -1.1633 C.3       1 <0>        -0.1026
     11 C8         -7.2355   -3.7893   -2.4078 C.3       1 <0>        -0.0496
     12 C9         -6.4074   -3.5120   -3.6636 C.3       1 <0>        -0.1065
     13 C10        -5.9454   -2.0465   -3.6547 C.3       1 <0>        -0.0594
     14 C11        -7.7683   -5.1980   -2.4601 C.ar      1 <0>        -0.0787
     15 C12        -6.8929   -6.2665   -2.5135 C.ar      1 <0>        -0.1147
     16 C13        -7.3816   -7.5587   -2.5615 C.ar      1 <0>        -0.1180
     17 C14        -8.7458   -7.7824   -2.5555 C.ar      1 <0>        -0.1229
     18 C15        -9.6211   -6.7139   -2.5011 C.ar      1 <0>        -0.1179
     19 C16        -9.1324   -5.4219   -2.4489 C.ar      1 <0>        -0.1161
     20 S1         -1.3349   -0.2429   -2.5989 S.3       1 <0>        -0.5307
     21 H1          1.0135    1.8919   -0.0029 H         1 <0>         0.0734
     22 H2         -0.5356    1.8786   -0.8796 H         1 <0>         0.0728
     23 H3         -0.5202    1.8747    0.9003 H         1 <0>         0.0521
     24 H4          0.5143   -0.3678   -0.8935 H         1 <0>         0.1149
     25 H5          0.2319   -0.1608    2.1387 H         1 <0>         0.0597
     26 H6          0.7523   -1.6070    1.2410 H         1 <0>         0.0623
     27 H7          1.7656   -0.1436    1.2355 H         1 <0>         0.0826
     28 H8         -3.7680   -1.3537   -0.3112 H         1 <0>         0.3774
     29 H9         -5.1933   -2.0639   -0.2336 H         1 <0>         0.0640
     30 H10        -6.7560   -1.5169   -0.8961 H         1 <0>         0.0972
     31 H11        -5.4942   -4.2772   -1.2375 H         1 <0>         0.0681
     32 H12        -6.9395   -3.8822   -0.2762 H         1 <0>         0.0747
     33 H13        -8.0696   -3.0891   -2.3619 H         1 <0>         0.0849
     34 H14        -5.5385   -4.1699   -3.6787 H         1 <0>         0.0710
     35 H15        -7.0170   -3.6944   -4.5486 H         1 <0>         0.0813
     36 H16        -6.8100   -1.3866   -3.7261 H         1 <0>         0.0936
     37 H17        -5.2746   -1.8678   -4.4951 H         1 <0>         0.0949
     38 H18        -5.8272   -6.0918   -2.5182 H         1 <0>         0.1196
     39 H19        -6.6977   -8.3935   -2.6040 H         1 <0>         0.1213
     40 H20        -9.1276   -8.7919   -2.5937 H         1 <0>         0.1211
     41 H21       -10.6869   -6.8887   -2.4968 H         1 <0>         0.1219
     42 H22        -9.8162   -4.5873   -2.4026 H         1 <0>         0.1217
     43 H23        -1.7950   -0.7502    0.8525 H         1 <0>         0.3924
@<TRIPOS>BOND
     1    1    2 1
     2    1   21 1
     3    1   22 1
     4    1   23 1
     5    2    3 1
     6    2    4 1
     7    2   24 1
     8    3   25 1
     9    3   26 1
    10    3   27 1
    11    4    5 2
    12    4   43 1
    13    5    6 1
    14    5   20 1
    15    6    7 1
    16    6   28 1
    17    7    8 2
    18    8   13 1
    19    8    9 1
    20    9   10 1
    21    9   29 1
    22    9   30 1
    23   10   11 1
    24   10   31 1
    25   10   32 1
    26   11   12 1
    27   11   14 1
    28   11   33 1
    29   12   13 1
    30   12   34 1
    31   12   35 1
    32   13   36 1
    33   13   37 1
    34   14   19 ar
    35   14   15 ar
    36   15   16 ar
    37   15   38 1
    38   16   17 ar
    39   16   39 1
    40   17   18 ar
    41   17   40 1
    42   18   19 ar
    43   18   41 1
    44   19   42 1
@<TRIPOS>MOLECULE
ZINC41798395
   48    49     0     0     0
SMALL
USER_CHARGES

@<TRIPOS>ATOM
      1 C1          0.7048    1.4051   -0.6640 C.3       1 <0>        -0.1196
      2 C2          0.5399   -0.0841   -0.5026 C.ar      1 <0>        -0.0802
      3 C3          0.2776   -0.8742   -1.6064 C.ar      1 <0>        -0.1061
      4 C4          0.1263   -2.2400   -1.4584 C.ar      1 <0>        -0.1471
      5 C5          0.2378   -2.8163   -0.2065 C.ar      1 <0>        -0.0934
      6 C6          0.5009   -2.0265    0.8968 C.ar      1 <0>        -0.0731
      7 C7          0.6564   -0.6608    0.7481 C.ar      1 <0>        -0.0742
      8 C8          0.9486    0.1997    1.9503 C.3       1 <0>        -0.1210
      9 C9          0.0719   -4.3054   -0.0450 C.3       1 <0>         0.0235
     10 C10        -1.0974   -4.5887    0.9002 C.3       1 <0>        -0.1490
     11 C11         1.3355   -4.8922    0.5293 C.2       1 <0>         0.5072
     12 O1          1.6783   -4.6087    1.6644 O.co2     1 <0>        -0.6254
     13 O2          2.0151   -5.6505   -0.1413 O.co2     1 <0>        -0.6660
     14 N1         -0.1990   -4.9128   -1.3548 N.4       1 <0>        -0.4804
     15 C12        -0.4908   -6.3420   -1.1808 C.3       1 <0>        -0.0108
     16 C13        -0.6356   -7.0037   -2.5527 C.3       1 <0>        -0.1073
     17 C14        -1.8565   -6.4258   -3.2713 C.3       1 <0>        -0.1292
     18 C15        -2.0013   -7.0875   -4.6432 C.3       1 <0>        -0.1186
     19 C16        -2.1810   -8.5964   -4.4653 C.3       1 <0>        -0.1232
     20 C17        -0.9601   -9.1743   -3.7467 C.3       1 <0>        -0.1205
     21 C18        -0.8154   -8.5126   -2.3747 C.3       1 <0>        -0.1102
     22 H1          1.7526    1.6359   -0.8560 H         1 <0>         0.0740
     23 H2          0.0976    1.7493   -1.5012 H         1 <0>         0.0675
     24 H3          0.3834    1.9073    0.2485 H         1 <0>         0.0719
     25 H4          0.1905   -0.4241   -2.5843 H         1 <0>         0.1271
     26 H5         -0.0793   -2.8571   -2.3205 H         1 <0>         0.1071
     27 H6          0.5876   -2.4766    1.8747 H         1 <0>         0.1438
     28 H7          0.0109    0.5354    2.3933 H         1 <0>         0.0739
     29 H8          1.5101   -0.3792    2.6836 H         1 <0>         0.0733
     30 H9          1.5359    1.0651    1.6436 H         1 <0>         0.0714
     31 H10        -2.0114   -4.1642    0.4849 H         1 <0>         0.0666
     32 H11        -1.2174   -5.6657    1.0170 H         1 <0>         0.0762
     33 H12        -0.8965   -4.1379    1.8721 H         1 <0>         0.1042
     34 H13        -0.9926   -4.4568   -1.7794 H         1 <0>         0.4030
     35 H14         0.3243   -6.8152   -0.6334 H         1 <0>         0.1525
     36 H15        -1.4193   -6.4578   -0.6218 H         1 <0>         0.1192
     37 H16         0.2592   -6.8117   -3.1449 H         1 <0>         0.0923
     38 H17        -2.7512   -6.6178   -2.6791 H         1 <0>         0.0751
     39 H18        -1.7284   -5.3508   -3.3981 H         1 <0>         0.0546
     40 H19        -2.8710   -6.6758   -5.1552 H         1 <0>         0.0675
     41 H20        -1.1065   -6.8956   -5.2354 H         1 <0>         0.0659
     42 H21        -3.0758   -8.7884   -3.8731 H         1 <0>         0.0639
     43 H22        -2.2842   -9.0678   -5.4426 H         1 <0>         0.0658
     44 H23        -1.0882  -10.2493   -3.6199 H         1 <0>         0.0695
     45 H24        -0.0654   -8.9823   -4.3389 H         1 <0>         0.0659
     46 H25         0.0544   -8.9243   -1.8628 H         1 <0>         0.0763
     47 H26        -1.7101   -8.7046   -1.7825 H         1 <0>         0.0702
     48 H27         0.6090   -4.8045   -1.9493 H         1 <0>         0.4260
@<TRIPOS>BOND
     1    1    2 1
     2    1   22 1
     3    1   23 1
     4    1   24 1
     5    2    7 ar
     6    2    3 ar
     7    3    4 ar
     8    3   25 1
     9    4    5 ar
    10    4   26 1
    11    5    6 ar
    12    5    9 1
    13    6    7 ar
    14    6   27 1
    15    7    8 1
    16    8   28 1
    17    8   29 1
    18    8   30 1
    19    9   10 1
    20    9   11 1
    21    9   14 1
    22   10   31 1
    23   10   32 1
    24   10   33 1
    25   11   12 2
    26   11   13 1
    27   14   15 1
    28   14   34 1
    29   14   48 1
    30   15   16 1
    31   15   35 1
    32   15   36 1
    33   16   21 1
    34   16   17 1
    35   16   37 1
    36   17   18 1
    37   17   38 1
    38   17   39 1
    39   18   19 1
    40   18   40 1
    41   18   41 1
    42   19   20 1
    43   19   42 1
    44   19   43 1
    45   20   21 1
    46   20   44 1
    47   20   45 1
    48   21   46 1
    49   21   47 1
@<TRIPOS>MOLECULE
ZINC59263279
   48    48     0     0     0
SMALL
USER_CHARGES

@<TRIPOS>ATOM
      1 C1         -0.0187    1.5258    0.0104 C.3       1 <0>        -0.1667
      2 C2          0.0021   -0.0041    0.0020 C.3       1 <0>         0.1652
      3 H1         -1.0205   -0.3814    0.0098 H         1 <0>         0.0887
      4 C3          0.7182   -0.4975   -1.2568 C.3       1 <0>        -0.1034
      5 C4          0.7390   -2.0273   -1.2652 C.3       1 <0>        -0.1466
      6 C5         -0.0218    0.0093   -2.4963 C.3       1 <0>        -0.1480
      7 N1          0.7106   -0.4894    1.1889 N.am      1 <0>        -0.7420
      8 C6          0.0512   -0.6335    2.3554 C.2       1 <0>         0.7064
      9 O1         -1.1318   -0.3607    2.4228 O.2       1 <0>        -0.5822
     10 N2          0.7031   -1.0799    3.4473 N.am      1 <0>        -0.7394
     11 C7         -0.0137   -1.2366    4.7154 C.3       1 <0>         0.2158
     12 H2         -0.7632   -0.4506    4.8085 H         1 <0>         0.0962
     13 C8          0.9621   -1.1382    5.8595 C.ar      1 <0>        -0.0864
     14 C9          2.2100   -1.7238    5.7558 C.ar      1 <0>        -0.1136
     15 C10         3.1052   -1.6337    6.8053 C.ar      1 <0>        -0.1181
     16 C11         2.7526   -0.9575    7.9583 C.ar      1 <0>        -0.1184
     17 C12         1.5051   -0.3711    8.0616 C.ar      1 <0>        -0.1160
     18 C13         0.6115   -0.4576    7.0105 C.ar      1 <0>        -0.1055
     19 C14        -0.7010   -2.6031    4.7473 C.3       1 <0>        -0.0729
     20 C15         0.3510   -3.7063    4.6165 C.3       1 <0>        -0.1458
     21 C16        -1.4496   -2.7667    6.0716 C.3       1 <0>        -0.1421
     22 C17        -1.6918   -2.7029    3.5857 C.3       1 <0>        -0.1293
     23 H3          1.0039    1.9031    0.0027 H         1 <0>         0.0543
     24 H4         -0.5459    1.8868   -0.8726 H         1 <0>         0.0682
     25 H5         -0.5289    1.8773    0.9072 H         1 <0>         0.0609
     26 H6          1.7408   -0.1202   -1.2645 H         1 <0>         0.0738
     27 H7          1.2492   -2.3788   -2.1620 H         1 <0>         0.0564
     28 H8          1.2661   -2.3884   -0.3821 H         1 <0>         0.0536
     29 H9         -0.2836   -2.4046   -1.2575 H         1 <0>         0.0561
     30 H10        -0.0366    1.0992   -2.4903 H         1 <0>         0.0615
     31 H11         0.4884   -0.3422   -3.3931 H         1 <0>         0.0593
     32 H12        -1.0444   -0.3679   -2.4886 H         1 <0>         0.0583
     33 H13         1.6544   -0.7070    1.1351 H         1 <0>         0.3930
     34 H14         1.6468   -1.2976    3.3936 H         1 <0>         0.3932
     35 H15         2.4855   -2.2521    4.8550 H         1 <0>         0.1202
     36 H16         4.0799   -2.0918    6.7246 H         1 <0>         0.1227
     37 H17         3.4517   -0.8877    8.7786 H         1 <0>         0.1223
     38 H18         1.2295    0.1569    8.9626 H         1 <0>         0.1240
     39 H19        -0.3618    0.0037    7.0897 H         1 <0>         0.1238
     40 H20         1.0568   -3.6352    5.4440 H         1 <0>         0.0616
     41 H21        -0.1386   -4.6799    4.6392 H         1 <0>         0.0544
     42 H22         0.8843   -3.5898    3.6730 H         1 <0>         0.0518
     43 H23        -2.1991   -1.9808    6.1647 H         1 <0>         0.0565
     44 H24        -1.9393   -3.7402    6.0943 H         1 <0>         0.0576
     45 H25        -0.7438   -2.6956    6.8991 H         1 <0>         0.0583
     46 H26        -1.1585   -2.5864    2.6422 H         1 <0>         0.0543
     47 H27        -2.1815   -3.6765    3.6084 H         1 <0>         0.0449
     48 H28        -2.4413   -1.9170    3.6788 H         1 <0>         0.0633
@<TRIPOS>BOND
     1    1    2 1
     2    1   23 1
     3    1   24 1
     4    1   25 1
     5    2    3 1
     6    2    4 1
     7    2    7 1
     8    4    5 1
     9    4    6 1
    10    4   26 1
    11    5   27 1
    12    5   28 1
    13    5   29 1
    14    6   30 1
    15    6   31 1
    16    6   32 1
    17    7    8 am
    18    7   33 1
    19    8    9 2
    20    8   10 am
    21   10   11 1
    22   10   34 1
    23   11   12 1
    24   11   13 1
    25   11   19 1
    26   13   18 ar
    27   13   14 ar
    28   14   15 ar
    29   14   35 1
    30   15   16 ar
    31   15   36 1
    32   16   17 ar
    33   16   37 1
    34   17   18 ar
    35   17   38 1
    36   18   39 1
    37   19   20 1
    38   19   21 1
    39   19   22 1
    40   20   40 1
    41   20   41 1
    42   20   42 1
    43   21   43 1
    44   21   44 1
    45   21   45 1
    46   22   46 1
    47   22   47 1
    48   22   48 1
@<TRIPOS>MOLECULE
ZINC32031341
   45    47     0     0     0
SMALL
USER_CHARGES
3-(1H-indol-3-yl)-N-[(1R,3S)-3-methylcyclohexyl]propanamide
@<TRIPOS>ATOM
      1 C1          4.7878    0.7675    1.1798 C.3       1 <0>        -0.1492
      2 C2          3.6749    1.6330    0.5854 C.3       1 <0>        -0.0890
      3 H1          3.5609    2.5473    1.1863 H         1 <0>         0.0725
      4 C3          4.0350    2.0097   -0.8531 C.3       1 <0>        -0.1170
      5 C4          2.9221    2.8752   -1.4475 C.3       1 <0>        -0.1188
      6 C5          1.6076    2.0922   -1.4392 C.3       1 <0>        -0.1274
      7 C6          1.2475    1.7155   -0.0006 C.3       1 <0>         0.1472
      8 H2          1.0912    2.6179    0.6088 H         1 <0>         0.0854
      9 C7          2.3605    0.8501    0.5937 C.3       1 <0>        -0.1193
     10 N1         -0.0111    0.9658    0.0074 N.am      1 <0>        -0.7431
     11 C8         -1.1873    1.6238    0.0165 C.2       1 <0>         0.5132
     12 O1         -1.2037    2.8365    0.0232 O.2       1 <0>        -0.5438
     13 C9         -2.4820    0.8526    0.0185 C.3       1 <0>        -0.1338
     14 C10        -3.6583    1.8309    0.0294 C.3       1 <0>        -0.0275
     15 C11        -4.9531    1.0598    0.0313 C.2       1 <0>        -0.1757
     16 C12        -5.6953    0.7429   -1.0414 C.2       1 <0>         0.0482
     17 N2         -6.7999    0.0354   -0.6519 N.pl3     1 <0>        -0.6080
     18 H3         -7.5215   -0.3159   -1.4042 H         1 <0>         0.4418
     19 C13        -6.8005   -0.1157    0.7167 C.ar      1 <0>         0.1068
     20 C14        -5.6436    0.5193    1.2048 C.ar      1 <0>        -0.1044
     21 C15        -5.3787    0.5266    2.5753 C.ar      1 <0>        -0.0709
     22 C16        -6.2458   -0.0842    3.4371 C.ar      1 <0>        -0.1484
     23 C17        -7.3885   -0.7115    2.9608 C.ar      1 <0>        -0.0996
     24 C18        -7.6693   -0.7306    1.6119 C.ar      1 <0>        -0.1326
     25 H4          5.7328    1.3304    1.1738 H         1 <0>         0.0570
     26 H5          4.9018   -0.1468    0.5789 H         1 <0>         0.0552
     27 H6          4.5289    0.4967    2.2140 H         1 <0>         0.0554
     28 H7          4.9801    2.5726   -0.8591 H         1 <0>         0.0643
     29 H8          4.1490    1.0954   -1.4540 H         1 <0>         0.0629
     30 H9          2.8081    3.7895   -0.8466 H         1 <0>         0.0644
     31 H10         3.1810    3.1461   -2.4817 H         1 <0>         0.0650
     32 H11         0.8075    2.7144   -1.8666 H         1 <0>         0.0658
     33 H12         1.7216    1.1779   -2.0401 H         1 <0>         0.0627
     34 H13         2.4745   -0.0642   -0.0073 H         1 <0>         0.0685
     35 H14         2.1016    0.5792    1.6279 H         1 <0>         0.0683
     36 H15         0.0039   -0.1341    0.0060 H         1 <0>         0.4177
     37 H16        -2.5359    0.2243   -0.8828 H         1 <0>         0.0914
     38 H17        -2.5274    0.2146    0.9134 H         1 <0>         0.0927
     39 H18        -3.6044    2.4591    0.9308 H         1 <0>         0.0759
     40 H19        -3.6129    2.4690   -0.8655 H         1 <0>         0.0753
     41 H20        -5.4547    1.0050   -2.0611 H         1 <0>         0.1677
     42 H21        -4.4915    1.0128    2.9532 H         1 <0>         0.1197
     43 H22        -6.0404   -0.0783    4.4974 H         1 <0>         0.1213
     44 H23        -8.0642   -1.1899    3.6543 H         1 <0>         0.1240
     45 H24        -8.5609   -1.2218    1.2510 H         1 <0>         0.1183
@<TRIPOS>BOND
     1    1    2 1
     2    1   25 1
     3    1   26 1
     4    1   27 1
     5    2    3 1
     6    2    9 1
     7    2    4 1
     8    4    5 1
     9    4   28 1
    10    4   29 1
    11    5    6 1
    12    5   30 1
    13    5   31 1
    14    6    7 1
    15    6   32 1
    16    6   33 1
    17    7    8 1
    18    7    9 1
    19    7   10 1
    20    9   34 1
    21    9   35 1
    22   10   11 am
    23   10   36 1
    24   11   12 2
    25   11   13 1
    26   13   14 1
    27   13   37 1
    28   13   38 1
    29   14   15 1
    30   14   39 1
    31   14   40 1
    32   15   20 1
    33   15   16 2
    34   16   17 1
    35   16   41 1
    36   17   18 1
    37   17   19 1
    38   19   24 ar
    39   19   20 ar
    40   20   21 ar
    41   21   22 ar
    42   21   42 1
    43   22   23 ar
    44   22   43 1
    45   23   24 ar
    46   23   44 1
    47   24   45 1
@<TRIPOS>MOLECULE
ZINC37072968
   38    39     0     0     0
SMALL
USER_CHARGES

@<TRIPOS>ATOM
      1 C1         -0.0187    1.5258    0.0104 C.3       1 <0>        -0.1550
      2 C2          0.0021   -0.0041    0.0020 C.3       1 <0>        -0.1202
      3 C3          0.7182   -0.4975   -1.2568 C.3       1 <0>        -0.0986
      4 H1          1.7103   -0.0491   -1.3098 H         1 <0>         0.0748
      5 C4         -0.0892   -0.0968   -2.4931 C.3       1 <0>        -0.1487
      6 C5          0.8493   -2.0210   -1.2049 C.3       1 <0>         0.1502
      7 H2         -0.1428   -2.4694   -1.1520 H         1 <0>         0.0825
      8 C6          1.6567   -2.4216    0.0313 C.3       1 <0>        -0.1736
      9 N1          1.5350   -2.4934   -2.4103 N.pl3     1 <0>        -0.7348
     10 C7          1.3294   -3.8013   -2.8653 C.ar      1 <0>         0.2587
     11 C8          0.4704   -4.6464   -2.1749 C.ar      1 <0>        -0.2043
     12 C9          0.2660   -5.9375   -2.6257 C.ar      1 <0>        -0.0073
     13 C10         0.9182   -6.3847   -3.7620 C.ar      1 <0>        -0.1905
     14 C11         1.7860   -5.5448   -4.4612 C.ar      1 <0>         0.2093
     15 C12         1.9800   -4.2452   -4.0064 C.ar      1 <0>        -0.2214
     16 N2          2.4594   -5.9781   -5.6002 N.am      1 <0>        -0.6558
     17 C13         2.1064   -6.9920   -6.3858 C.2       1 <0>         0.5257
     18 O1          2.7977   -7.2361   -7.3521 O.2       1 <0>        -0.5158
     19 C14         0.8969   -7.8525   -6.1412 C.3       1 <0>        -0.1282
     20 S1          0.6587   -8.0299   -4.3470 S.3       1 <0>        -0.0919
     21 H3          1.0039    1.9031    0.0027 H         1 <0>         0.0538
     22 H4         -0.5459    1.8868   -0.8726 H         1 <0>         0.0570
     23 H5         -0.5289    1.8773    0.9072 H         1 <0>         0.0558
     24 H6          0.5293   -0.3651    0.8851 H         1 <0>         0.0690
     25 H7         -1.0205   -0.3814    0.0098 H         1 <0>         0.0647
     26 H8         -1.0813   -0.5452   -2.4401 H         1 <0>         0.0557
     27 H9         -0.1826    0.9885   -2.5300 H         1 <0>         0.0594
     28 H10         0.4210   -0.4484   -3.3899 H         1 <0>         0.0550
     29 H11         2.6488   -1.9732   -0.0216 H         1 <0>         0.0587
     30 H12         1.1465   -2.0701    0.9281 H         1 <0>         0.0694
     31 H13         1.7501   -3.5070    0.0683 H         1 <0>         0.0607
     32 H14         2.1314   -1.9001   -2.8930 H         1 <0>         0.4004
     33 H15        -0.0365   -4.2962   -1.2879 H         1 <0>         0.1326
     34 H16        -0.4019   -6.5969   -2.0914 H         1 <0>         0.1365
     35 H17         2.6426   -3.5809   -4.5413 H         1 <0>         0.1297
     36 H18         3.2635   -5.4938   -5.8446 H         1 <0>         0.4133
     37 H19         0.0182   -7.3815   -6.5817 H         1 <0>         0.1245
     38 H20         1.0507   -8.8345   -6.5884 H         1 <0>         0.1487
@<TRIPOS>BOND
     1    1    2 1
     2    1   21 1
     3    1   22 1
     4    1   23 1
     5    2    3 1
     6    2   24 1
     7    2   25 1
     8    3    4 1
     9    3    5 1
    10    3    6 1
    11    5   26 1
    12    5   27 1
    13    5   28 1
    14    6    7 1
    15    6    8 1
    16    6    9 1
    17    8   29 1
    18    8   30 1
    19    8   31 1
    20    9   10 1
    21    9   32 1
    22   10   15 ar
    23   10   11 ar
    24   11   12 ar
    25   11   33 1
    26   12   13 ar
    27   12   34 1
    28   13   20 1
    29   13   14 ar
    30   14   15 ar
    31   14   16 1
    32   15   35 1
    33   16   17 am
    34   16   36 1
    35   17   18 2
    36   17   19 1
    37   19   20 1
    38   19   37 1
    39   19   38 1
@<TRIPOS>MOLECULE
ZINC41761648
   45    46     0     0     0
SMALL
USER_CHARGES

@<TRIPOS>ATOM
      1 C1         -4.3759   -6.9893   -2.5334 C.3       1 <0>        -0.1198
      2 C2         -3.2110   -6.2975   -1.8735 C.ar      1 <0>        -0.0717
      3 C3         -2.0148   -6.1586   -2.5524 C.ar      1 <0>        -0.1164
      4 C4         -0.9462   -5.5241   -1.9471 C.ar      1 <0>        -0.0814
      5 C5         -1.0739   -5.0281   -0.6631 C.ar      1 <0>        -0.1032
      6 C6         -2.2703   -5.1662    0.0154 C.ar      1 <0>        -0.1256
      7 C7         -3.3403   -5.7969   -0.5915 C.ar      1 <0>        -0.1216
      8 C8          0.0914   -4.3372   -0.0028 C.3       1 <0>         0.0221
      9 C9         -0.1612   -2.8286    0.0284 C.3       1 <0>        -0.1488
     10 C10         1.3500   -4.6198   -0.7819 C.2       1 <0>         0.5008
     11 O1          1.4465   -4.2496   -1.9396 O.co2     1 <0>        -0.6272
     12 O2          2.2718   -5.2187   -0.2546 O.co2     1 <0>        -0.6476
     13 N1          0.2428   -4.8369    1.3703 N.4       1 <0>        -0.4817
     14 C11         0.0621   -6.2947    1.3836 C.3       1 <0>         0.0270
     15 H1         -0.8709   -6.5497    0.8811 H         1 <0>         0.1332
     16 C12         1.2319   -6.9603    0.6559 C.3       1 <0>        -0.1301
     17 C13         1.0437   -8.4786    0.6698 C.3       1 <0>        -0.1234
     18 C14         0.9953   -8.9732    2.1169 C.3       1 <0>        -0.1267
     19 C15        -0.1744   -8.3076    2.8445 C.3       1 <0>        -0.1065
     20 C16         0.0138   -6.7893    2.8306 C.3       1 <0>        -0.1074
     21 H2          0.9468   -6.5343    3.3332 H         1 <0>         0.0893
     22 C17        -1.1560   -6.1237    3.5583 C.3       1 <0>        -0.1677
     23 H3         -4.9737   -6.2567   -3.0757 H         1 <0>         0.0743
     24 H4         -4.0049   -7.7420   -3.2290 H         1 <0>         0.0700
     25 H5         -4.9916   -7.4694   -1.7729 H         1 <0>         0.0676
     26 H6         -1.9150   -6.5462   -3.5555 H         1 <0>         0.1287
     27 H7         -0.0114   -5.4162   -2.4771 H         1 <0>         0.1635
     28 H8         -2.3700   -4.7790    1.0187 H         1 <0>         0.1129
     29 H9         -4.2762   -5.9015   -0.0628 H         1 <0>         0.1254
     30 H10        -1.0821   -2.6256    0.5751 H         1 <0>         0.0657
     31 H11         0.6726   -2.3308    0.5235 H         1 <0>         0.0739
     32 H12        -0.2541   -2.4545   -0.9912 H         1 <0>         0.1054
     33 H13         1.1648   -4.6091    1.7112 H         1 <0>         0.4265
     34 H14         1.2664   -6.6078   -0.3750 H         1 <0>         0.1250
     35 H15         2.1649   -6.7052    1.1585 H         1 <0>         0.0913
     36 H16         0.1107   -8.7337    0.1673 H         1 <0>         0.0589
     37 H17         1.8770   -8.9528    0.1514 H         1 <0>         0.0737
     38 H18         0.8612  -10.0549    2.1268 H         1 <0>         0.0670
     39 H19         1.9283   -8.7182    2.6194 H         1 <0>         0.0664
     40 H20        -1.1074   -8.5627    2.3420 H         1 <0>         0.0683
     41 H21        -0.2089   -8.6601    3.8754 H         1 <0>         0.0749
     42 H22        -2.0890   -6.3788    3.0558 H         1 <0>         0.0687
     43 H23        -1.1905   -6.4761    4.5892 H         1 <0>         0.0783
     44 H24        -1.0219   -5.0421    3.5484 H         1 <0>         0.0484
     45 H25        -0.4509   -4.4065    1.9632 H         1 <0>         0.3995
@<TRIPOS>BOND
     1    1    2 1
     2    1   23 1
     3    1   24 1
     4    1   25 1
     5    2    7 ar
     6    2    3 ar
     7    3    4 ar
     8    3   26 1
     9    4    5 ar
    10    4   27 1
    11    5    6 ar
    12    5    8 1
    13    6    7 ar
    14    6   28 1
    15    7   29 1
    16    8    9 1
    17    8   10 1
    18    8   13 1
    19    9   30 1
    20    9   31 1
    21    9   32 1
    22   10   11 2
    23   10   12 1
    24   13   14 1
    25   13   33 1
    26   13   45 1
    27   14   15 1
    28   14   20 1
    29   14   16 1
    30   16   17 1
    31   16   34 1
    32   16   35 1
    33   17   18 1
    34   17   36 1
    35   17   37 1
    36   18   19 1
    37   18   38 1
    38   18   39 1
    39   19   20 1
    40   19   40 1
    41   19   41 1
    42   20   21 1
    43   20   22 1
    44   22   42 1
    45   22   43 1
    46   22   44 1
@<TRIPOS>MOLECULE
ZINC49284347
   41    42     0     0     0
SMALL
USER_CHARGES

@<TRIPOS>ATOM
      1 C1         -0.0187    1.5258    0.0104 C.3       1 <0>        -0.1602
      2 C2          0.0021   -0.0041    0.0020 C.3       1 <0>         0.2039
      3 H1         -1.0205   -0.3814    0.0098 H         1 <0>         0.1000
      4 C3          0.7309   -0.5033    1.2229 C.ar      1 <0>        -0.1037
      5 C4          2.1132   -0.5135    1.2461 C.ar      1 <0>        -0.0853
      6 C5          2.7827   -0.9706    2.3653 C.ar      1 <0>        -0.1494
      7 C6          2.0685   -1.4185    3.4637 C.ar      1 <0>         0.1004
      8 C7          0.6842   -1.4079    3.4393 C.ar      1 <0>        -0.1483
      9 C8          0.0169   -0.9453    2.3210 C.ar      1 <0>        -0.0763
     10 F1          2.7219   -1.8661    4.5582 F         1 <0>        -0.1378
     11 N1          0.6878   -0.4765   -1.2033 N.am      1 <0>        -0.7425
     12 C9          0.0062   -0.6081   -2.3585 C.2       1 <0>         0.7054
     13 O1         -1.1778   -0.3348   -2.4004 O.2       1 <0>        -0.5872
     14 N2          0.6370   -1.0428   -3.4674 N.am      1 <0>        -0.7453
     15 C10        -0.1039   -1.1859   -4.7231 C.3       1 <0>         0.1431
     16 C11         0.8390   -1.6915   -5.8168 C.3       1 <0>        -0.0998
     17 H2          1.6994   -1.0268   -5.8950 H         1 <0>         0.0797
     18 C12         0.0967   -1.7340   -7.1585 C.3       1 <0>        -0.1126
     19 C13         1.1053   -2.0695   -8.2593 C.3       1 <0>        -0.0921
     20 C14         1.9208   -3.2663   -7.8658 C.2       1 <0>        -0.1550
     21 C15         2.0121   -3.7155   -6.6553 C.2       1 <0>        -0.1584
     22 C16         1.3115   -3.1063   -5.4750 C.3       1 <0>        -0.0856
     23 H3          1.0039    1.9031    0.0027 H         1 <0>         0.0584
     24 H4         -0.5459    1.8868   -0.8726 H         1 <0>         0.0680
     25 H5         -0.5289    1.8773    0.9072 H         1 <0>         0.0691
     26 H6          2.6700   -0.1644    0.3891 H         1 <0>         0.1305
     27 H7          3.8625   -0.9788    2.3831 H         1 <0>         0.1378
     28 H8          0.1261   -1.7573    4.2954 H         1 <0>         0.1391
     29 H9         -1.0629   -0.9327    2.3035 H         1 <0>         0.1372
     30 H10         1.6324   -0.6946   -1.1699 H         1 <0>         0.3946
     31 H11         1.5816   -1.2609   -3.4340 H         1 <0>         0.3955
     32 H12        -0.9168   -1.8989   -4.5861 H         1 <0>         0.0682
     33 H13        -0.5138   -0.2191   -5.0153 H         1 <0>         0.0686
     34 H14        -0.6775   -2.5005   -7.1248 H         1 <0>         0.0693
     35 H15        -0.3542   -0.7620   -7.3587 H         1 <0>         0.0710
     36 H16         0.5716   -2.2845   -9.1850 H         1 <0>         0.0744
     37 H17         1.7666   -1.2172   -8.4154 H         1 <0>         0.0743
     38 H18         2.4650   -3.7853   -8.6410 H         1 <0>         0.1027
     39 H19         2.6342   -4.5811   -6.4819 H         1 <0>         0.1027
     40 H20         1.9949   -3.0640   -4.6269 H         1 <0>         0.0694
     41 H21         0.4506   -3.7211   -5.2124 H         1 <0>         0.0764
@<TRIPOS>BOND
     1    1    2 1
     2    1   23 1
     3    1   24 1
     4    1   25 1
     5    2    3 1
     6    2    4 1
     7    2   11 1
     8    4    9 ar
     9    4    5 ar
    10    5    6 ar
    11    5   26 1
    12    6    7 ar
    13    6   27 1
    14    7    8 ar
    15    7   10 1
    16    8    9 ar
    17    8   28 1
    18    9   29 1
    19   11   12 am
    20   11   30 1
    21   12   13 2
    22   12   14 am
    23   14   15 1
    24   14   31 1
    25   15   16 1
    26   15   32 1
    27   15   33 1
    28   16   17 1
    29   16   22 1
    30   16   18 1
    31   18   19 1
    32   18   34 1
    33   18   35 1
    34   19   20 1
    35   19   36 1
    36   19   37 1
    37   20   21 2
    38   20   38 1
    39   21   22 1
    40   21   39 1
    41   22   40 1
    42   22   41 1
@<TRIPOS>MOLECULE
ZINC57892100
   40    42     0     0     0
SMALL
USER_CHARGES

@<TRIPOS>ATOM
      1 C1         -0.0184    1.5028    0.0103 C.3       1 <0>        -0.1182
      2 C2          0.0021   -0.0041    0.0020 C.ar      1 <0>        -0.0803
      3 C3          0.0057   -0.6887   -1.1989 C.ar      1 <0>        -0.1143
      4 C4          0.0245   -2.0709   -1.2065 C.ar      1 <0>        -0.0978
      5 C5          0.0400   -2.7685   -0.0132 C.ar      1 <0>        -0.0949
      6 C6          0.0373   -2.0839    1.1877 C.ar      1 <0>        -0.1087
      7 C7          0.0229   -0.7016    1.1953 C.ar      1 <0>        -0.1160
      8 C8          0.0595   -4.2753   -0.0215 C.3       1 <0>         0.2326
      9 H1          0.4102   -4.6288   -0.9911 H         1 <0>         0.1076
     10 C9         -1.3318   -4.7970    0.2301 C.ar      1 <0>        -0.0907
     11 C10        -1.8315   -4.8397    1.5183 C.ar      1 <0>        -0.1031
     12 C11        -3.1077   -5.3182    1.7491 C.ar      1 <0>        -0.1204
     13 C12        -3.8843   -5.7537    0.6917 C.ar      1 <0>        -0.1171
     14 C13        -3.3849   -5.7102   -0.5966 C.ar      1 <0>        -0.1169
     15 C14        -2.1103   -5.2277   -0.8279 C.ar      1 <0>        -0.1005
     16 N1          0.9594   -4.7579    1.0290 N.am      1 <0>        -0.7256
     17 C15         1.5341   -5.9719    0.9187 C.2       1 <0>         0.5937
     18 O1          1.3056   -6.6673   -0.0535 O.2       1 <0>        -0.5193
     19 C16         2.4351   -6.4551    1.9705 C.2       1 <0>        -0.0615
     20 C17         3.0936   -7.6663    1.9865 C.2       1 <0>        -0.1008
     21 C18         3.8403   -7.7123    3.1679 C.2       1 <0>        -0.2108
     22 C19         3.6297   -6.5542    3.8381 C.2       1 <0>         0.0263
     23 N2          2.7819   -5.7793    3.1185 N.pl3     1 <0>        -0.5423
     24 H2          2.4700   -4.8963    3.3713 H         1 <0>         0.4139
     25 H3          1.0042    1.8801    0.0026 H         1 <0>         0.0725
     26 H4         -0.5455    1.8639   -0.8728 H         1 <0>         0.0684
     27 H5         -0.5286    1.8543    0.9071 H         1 <0>         0.0676
     28 H6         -0.0064   -0.1436   -2.1312 H         1 <0>         0.1262
     29 H7          0.0266   -2.6057   -2.1448 H         1 <0>         0.1263
     30 H8          0.0491   -2.6289    2.1200 H         1 <0>         0.1160
     31 H9          0.0245   -0.1667    2.1335 H         1 <0>         0.1242
     32 H10        -1.2247   -4.4994    2.3444 H         1 <0>         0.1128
     33 H11        -3.4978   -5.3522    2.7556 H         1 <0>         0.1214
     34 H12        -4.8811   -6.1283    0.8721 H         1 <0>         0.1224
     35 H13        -3.9915   -6.0508   -1.4227 H         1 <0>         0.1243
     36 H14        -1.7215   -5.1902   -1.8348 H         1 <0>         0.1231
     37 H15         1.1416   -4.2036    1.8039 H         1 <0>         0.3932
     38 H16         3.0421   -8.4348    1.2294 H         1 <0>         0.1486
     39 H17         4.4725   -8.5269    3.4891 H         1 <0>         0.1456
     40 H18         4.0685   -6.2899    4.7888 H         1 <0>         0.1727
@<TRIPOS>BOND
     1    1    2 1
     2    1   25 1
     3    1   26 1
     4    1   27 1
     5    2    7 ar
     6    2    3 ar
     7    3    4 ar
     8    3   28 1
     9    4    5 ar
    10    4   29 1
    11    5    6 ar
    12    5    8 1
    13    6    7 ar
    14    6   30 1
    15    7   31 1
    16    8    9 1
    17    8   10 1
    18    8   16 1
    19   10   15 ar
    20   10   11 ar
    21   11   12 ar
    22   11   32 1
    23   12   13 ar
    24   12   33 1
    25   13   14 ar
    26   13   34 1
    27   14   15 ar
    28   14   35 1
    29   15   36 1
    30   16   17 am
    31   16   37 1
    32   17   18 2
    33   17   19 1
    34   19   23 1
    35   19   20 2
    36   20   21 1
    37   20   38 1
    38   21   22 2
    39   21   39 1
    40   22   23 1
    41   22   40 1
    42   23   24 1
@<TRIPOS>MOLECULE
ZINC21363248
   41    43     0     0     0
SMALL
USER_CHARGES
N-(dicyclopropylmethyl)-2-[(2-fluoro-4-methyl-phenyl)amino]acetamide
@<TRIPOS>ATOM
      1 C1          1.3090    0.1852    6.3394 C.3       1 <0>        -0.1103
      2 C2          0.7750    0.5505    4.9783 C.ar      1 <0>        -0.1202
      3 C3          1.4226    0.1044    3.8409 C.ar      1 <0>        -0.0777
      4 C4          0.9365    0.4369    2.5912 C.ar      1 <0>        -0.1788
      5 C5         -0.2040    1.2202    2.4770 C.ar      1 <0>         0.1928
      6 C6         -0.8504    1.6725    3.6224 C.ar      1 <0>         0.0241
      7 C7         -0.3611    1.3314    4.8699 C.ar      1 <0>        -0.1048
      8 F1         -1.9571    2.4400    3.5163 F         1 <0>        -0.1424
      9 N1         -0.6984    1.5583    1.2133 N.pl3     1 <0>        -0.7457
     10 C8         -0.0127    1.0858    0.0080 C.3       1 <0>         0.1096
     11 C9         -0.7416    1.5850   -1.2129 C.2       1 <0>         0.5132
     12 O1         -1.7359    2.2682   -1.0884 O.2       1 <0>        -0.5340
     13 N2         -0.2884    1.2723   -2.4431 N.am      1 <0>        -0.7333
     14 C10        -0.9970    1.7576   -3.6299 C.3       1 <0>         0.1619
     15 C11        -0.5140    3.1688   -3.9708 C.3       1 <0>        -0.2624
     16 C12         0.6943    3.7069   -3.2018 C.3       1 <0>        -0.1214
     17 C13        -0.7047    4.2559   -2.9113 C.3       1 <0>        -0.1405
     18 C14        -0.7162    0.8238   -4.8089 C.3       1 <0>        -0.2649
     19 C15        -1.9192    0.2890   -5.5886 C.3       1 <0>        -0.1165
     20 C16        -1.1310   -0.6418   -4.6636 C.3       1 <0>        -0.1187
     21 H1          2.2105   -0.4347    6.2253 H         1 <0>         0.0657
     22 H2          0.5443   -0.3783    6.8941 H         1 <0>         0.0677
     23 H3          1.5619    1.1020    6.8922 H         1 <0>         0.0678
     24 H4          2.3100   -0.5047    3.9297 H         1 <0>         0.1273
     25 H5          1.4436    0.0880    1.7038 H         1 <0>         0.1276
     26 H6         -0.8643    1.6784    5.7603 H         1 <0>         0.1336
     27 H7         -1.6022    2.1790    1.1243 H         1 <0>         0.4383
     28 H8          1.0193    1.4665    0.0002 H         1 <0>         0.0893
     29 H9          0.0022   -0.0141    0.0020 H         1 <0>         0.0880
     30 H10         0.6135    0.6527   -2.5560 H         1 <0>         0.4193
     31 H11        -2.0699    1.7634   -3.3872 H         1 <0>         0.0744
     32 H12        -0.7760    3.0639   -5.0340 H         1 <0>         0.1231
     33 H13         1.1768    2.8837   -2.6545 H         1 <0>         0.0976
     34 H14         1.4124    4.1476   -3.9090 H         1 <0>         0.0943
     35 H15        -1.1426    5.1503   -3.3784 H         1 <0>         0.0944
     36 H16        -1.3782    3.8864   -2.1239 H         1 <0>         0.1262
     37 H17         0.2142    1.3465   -5.0758 H         1 <0>         0.1283
     38 H18        -2.8208    0.8503   -5.3021 H         1 <0>         0.1007
     39 H19        -1.7399    0.4091   -6.6672 H         1 <0>         0.1049
     40 H20        -0.3004   -1.2908   -4.9779 H         1 <0>         0.1028
     41 H21        -1.3813   -0.8496   -3.6128 H         1 <0>         0.0985
@<TRIPOS>BOND
     1    1    2 1
     2    1   21 1
     3    1   22 1
     4    1   23 1
     5    2    7 ar
     6    2    3 ar
     7    3    4 ar
     8    3   24 1
     9    4    5 ar
    10    4   25 1
    11    5    6 ar
    12    5    9 1
    13    6    7 ar
    14    6    8 1
    15    7   26 1
    16    9   10 1
    17    9   27 1
    18   10   11 1
    19   10   28 1
    20   10   29 1
    21   11   12 2
    22   11   13 am
    23   13   14 1
    24   13   30 1
    25   14   15 1
    26   14   18 1
    27   14   31 1
    28   15   17 1
    29   15   16 1
    30   15   32 1
    31   16   17 1
    32   16   33 1
    33   16   34 1
    34   17   35 1
    35   17   36 1
    36   18   20 1
    37   18   19 1
    38   18   37 1
    39   19   20 1
    40   19   38 1
    41   19   39 1
    42   20   40 1
    43   20   41 1
@<TRIPOS>MOLECULE
ZINC37879878
   43    43     0     0     0
SMALL
USER_CHARGES

@<TRIPOS>ATOM
      1 C1          0.0147    1.5105    0.0078 C.3       1 <0>        -0.1762
      2 C2          0.0240   -0.0193   -0.0075 C.3       1 <0>         0.0831
      3 H1          0.4843   -0.3891    0.9087 H         1 <0>         0.0624
      4 C3         -1.4126   -0.5372   -0.1015 C.3       1 <0>        -0.1123
      5 C4         -1.4126   -2.0635    0.0045 C.3       1 <0>        -0.0972
      6 C5         -0.9434   -2.4778    1.4006 C.3       1 <0>        -0.1501
      7 C6         -2.8284   -2.5914   -0.2354 C.3       1 <0>        -0.1482
      8 O1          0.7710   -0.4798   -1.1353 O.3       1 <0>        -0.3663
      9 C7          2.1631   -0.6678   -0.8730 C.3       1 <0>         0.0342
     10 C8          2.8597   -1.1592   -2.1435 C.3       1 <0>         0.1003
     11 H2          2.3608   -2.0576   -2.5071 H         1 <0>         0.1132
     12 C9          4.3230   -1.4793   -1.8315 C.3       1 <0>         0.0945
     13 N1          4.9900   -1.9499   -3.0480 N.pl3     1 <0>        -0.7361
     14 C10         6.3410   -2.3055   -3.0112 C.ar      1 <0>         0.2273
     15 C11         7.0514   -2.2188   -1.8209 C.ar      1 <0>        -0.1911
     16 C12         8.3864   -2.5714   -1.7877 C.ar      1 <0>        -0.0654
     17 C13         9.0165   -3.0101   -2.9379 C.ar      1 <0>        -0.1681
     18 C14         8.3131   -3.0979   -4.1250 C.ar      1 <0>        -0.0615
     19 C15         6.9755   -2.7521   -4.1643 C.ar      1 <0>        -0.1137
     20 Cl1         6.0909   -2.8688   -5.6535 Cl        1 <0>        -0.0717
     21 O2          2.7978   -0.1416   -3.1447 O.3       1 <0>        -0.5453
     22 H3          1.0382    1.8794    0.0748 H         1 <0>         0.0547
     23 H4         -0.4456    1.8803   -0.9084 H         1 <0>         0.0654
     24 H5         -0.5551    1.8618    0.8681 H         1 <0>         0.0658
     25 H6         -2.0043   -0.1165    0.7115 H         1 <0>         0.0756
     26 H7         -1.8444   -0.2393   -1.0570 H         1 <0>         0.0725
     27 H8         -0.7380   -2.4796   -0.7438 H         1 <0>         0.0761
     28 H9         -1.6180   -2.0616    2.1489 H         1 <0>         0.0544
     29 H10        -0.9434   -3.5652    1.4761 H         1 <0>         0.0549
     30 H11         0.0652   -2.1017    1.5715 H         1 <0>         0.0508
     31 H12        -3.5042   -2.1700    0.5088 H         1 <0>         0.0534
     32 H13        -3.1600   -2.3020   -1.2325 H         1 <0>         0.0550
     33 H14        -2.8297   -3.6783   -0.1532 H         1 <0>         0.0544
     34 H15         2.6047    0.2781   -0.5592 H         1 <0>         0.0542
     35 H16         2.2871   -1.4069   -0.0815 H         1 <0>         0.0598
     36 H17         4.8219   -0.5810   -1.4679 H         1 <0>         0.0672
     37 H18         4.3703   -2.2556   -1.0678 H         1 <0>         0.0735
     38 H19         4.4939   -2.0147   -3.8790 H         1 <0>         0.4092
     39 H20         6.5604   -1.8757   -0.9222 H         1 <0>         0.1276
     40 H21         8.9390   -2.5041   -0.8622 H         1 <0>         0.1274
     41 H22        10.0607   -3.2844   -2.9089 H         1 <0>         0.1284
     42 H23         8.8083   -3.4405   -5.0215 H         1 <0>         0.1323
     43 H24         3.2231    0.6883   -2.8889 H         1 <0>         0.3757
@<TRIPOS>BOND
     1    1    2 1
     2    1   22 1
     3    1   23 1
     4    1   24 1
     5    2    3 1
     6    2    4 1
     7    2    8 1
     8    4    5 1
     9    4   25 1
    10    4   26 1
    11    5    6 1
    12    5    7 1
    13    5   27 1
    14    6   28 1
    15    6   29 1
    16    6   30 1
    17    7   31 1
    18    7   32 1
    19    7   33 1
    20    8    9 1
    21    9   10 1
    22    9   34 1
    23    9   35 1
    24   10   11 1
    25   10   12 1
    26   10   21 1
    27   12   13 1
    28   12   36 1
    29   12   37 1
    30   13   14 1
    31   13   38 1
    32   14   19 ar
    33   14   15 ar
    34   15   16 ar
    35   15   39 1
    36   16   17 ar
    37   16   40 1
    38   17   18 ar
    39   17   41 1
    40   18   19 ar
    41   18   42 1
    42   19   20 1
    43   21   43 1
@<TRIPOS>MOLECULE
ZINC41794819
   47    47     0     0     0
SMALL
USER_CHARGES

@<TRIPOS>ATOM
      1 C1         -3.3520    0.2524    3.0520 C.3       1 <0>        -0.1491
      2 C2         -2.7405   -1.0553    2.5451 C.3       1 <0>        -0.0875
      3 C3         -1.3275   -1.1796    3.0543 C.ar      1 <0>        -0.0751
      4 C4         -0.2787   -0.6658    2.3148 C.ar      1 <0>        -0.1028
      5 C5          1.0174   -0.7798    2.7819 C.ar      1 <0>        -0.0840
      6 C6          1.2645   -1.4074    3.9885 C.ar      1 <0>        -0.0881
      7 C7          0.2156   -1.9204    4.7284 C.ar      1 <0>        -0.1383
      8 C8         -1.0809   -1.8026    4.2634 C.ar      1 <0>        -0.1037
      9 C9          2.6776   -1.5326    4.4972 C.3       1 <0>         0.0199
     10 C10         3.5137   -2.3251    3.4904 C.3       1 <0>        -0.1457
     11 C11         3.2718   -0.1589    4.6728 C.2       1 <0>         0.5163
     12 O1          2.9742    0.5144    5.6447 O.co2     1 <0>        -0.6580
     13 O2          4.0502    0.2792    3.8429 O.co2     1 <0>        -0.6357
     14 N1          2.6729   -2.2328    5.7886 N.4       1 <0>        -0.4836
     15 C12         4.0562   -2.4772    6.2181 C.3       1 <0>         0.0260
     16 H1          4.5744   -3.0627    5.4586 H         1 <0>         0.1331
     17 C13         4.7747   -1.1400    6.4094 C.3       1 <0>        -0.1987
     18 C14         4.0512   -3.2472    7.5402 C.3       1 <0>        -0.1387
     19 C15         3.4446   -4.6345    7.3202 C.3       1 <0>        -0.1072
     20 C16         4.3459   -5.4426    6.3846 C.3       1 <0>        -0.1598
     21 C17         3.3248   -5.3575    8.6632 C.3       1 <0>        -0.1498
     22 H2         -2.7605    1.0939    2.6914 H         1 <0>         0.0579
     23 H3         -4.3739    0.3423    2.6837 H         1 <0>         0.0606
     24 H4         -3.3572    0.2525    4.1420 H         1 <0>         0.0561
     25 H5         -3.3320   -1.8968    2.9057 H         1 <0>         0.0732
     26 H6         -2.7352   -1.0554    1.4551 H         1 <0>         0.0748
     27 H7         -0.4718   -0.1755    1.3721 H         1 <0>         0.1300
     28 H8          1.8369   -0.3790    2.2039 H         1 <0>         0.1356
     29 H9          0.4087   -2.4110    5.6710 H         1 <0>         0.1074
     30 H10        -1.9008   -2.2001    4.8432 H         1 <0>         0.1273
     31 H11         3.5172   -1.8055    2.5322 H         1 <0>         0.1040
     32 H12         4.5357   -2.4157    3.8583 H         1 <0>         0.0778
     33 H13         3.0839   -3.3187    3.3634 H         1 <0>         0.0614
     34 H14         2.2022   -1.6651    6.4773 H         1 <0>         0.4265
     35 H15         5.7422   -1.3116    6.8811 H         1 <0>         0.0802
     36 H16         4.9224   -0.6649    5.4396 H         1 <0>         0.1111
     37 H17         4.1712   -0.4908    7.0438 H         1 <0>         0.0975
     38 H18         5.0735   -3.3512    7.9040 H         1 <0>         0.1077
     39 H19         3.4576   -2.7035    8.2751 H         1 <0>         0.0863
     40 H20         2.4558   -4.5319    6.8733 H         1 <0>         0.0607
     41 H21         5.3348   -5.5452    6.8315 H         1 <0>         0.0665
     42 H22         3.9138   -6.4310    6.2278 H         1 <0>         0.0647
     43 H23         4.4313   -4.9275    5.4278 H         1 <0>         0.0550
     44 H24         2.6827   -4.7818    9.3298 H         1 <0>         0.0593
     45 H25         2.8926   -6.3458    8.5065 H         1 <0>         0.0621
     46 H26         4.3136   -5.4601    9.1102 H         1 <0>         0.0629
     47 H27         2.1901   -3.1135    5.6919 H         1 <0>         0.4036
@<TRIPOS>BOND
     1    1    2 1
     2    1   22 1
     3    1   23 1
     4    1   24 1
     5    2    3 1
     6    2   25 1
     7    2   26 1
     8    3    8 ar
     9    3    4 ar
    10    4    5 ar
    11    4   27 1
    12    5    6 ar
    13    5   28 1
    14    6    7 ar
    15    6    9 1
    16    7    8 ar
    17    7   29 1
    18    8   30 1
    19    9   10 1
    20    9   11 1
    21    9   14 1
    22   10   31 1
    23   10   32 1
    24   10   33 1
    25   11   12 2
    26   11   13 1
    27   14   15 1
    28   14   34 1
    29   14   47 1
    30   15   16 1
    31   15   17 1
    32   15   18 1
    33   17   35 1
    34   17   36 1
    35   17   37 1
    36   18   19 1
    37   18   38 1
    38   18   39 1
    39   19   20 1
    40   19   21 1
    41   19   40 1
    42   20   41 1
    43   20   42 1
    44   20   43 1
    45   21   44 1
    46   21   45 1
    47   21   46 1
@<TRIPOS>MOLECULE
ZINC43960902
   35    36     0     0     0
SMALL
USER_CHARGES

@<TRIPOS>ATOM
      1 C1         -0.0302    1.3730    0.0419 C.ar      1 <0>        -0.0933
      2 C2          1.1525    2.0897    0.0384 C.ar      1 <0>        -0.1196
      3 C3          2.3659    1.4285    0.0152 C.ar      1 <0>        -0.1100
      4 C4          2.3996    0.0413   -0.0046 C.ar      1 <0>        -0.1292
      5 C5          1.2063   -0.6812   -0.0010 C.ar      1 <0>         0.1980
      6 C6         -0.0060   -0.0092    0.0223 C.ar      1 <0>        -0.1138
      7 N1          1.2330   -2.0827   -0.0214 N.am      1 <0>        -0.6809
      8 C7          0.1808   -2.7697   -0.5088 C.2       1 <0>         0.7063
      9 O1         -0.7469   -2.1761   -1.0241 O.2       1 <0>        -0.5673
     10 N2          0.1570   -4.1147   -0.4250 N.am      1 <0>        -0.7359
     11 C8         -0.9867   -4.8614   -0.9547 C.3       1 <0>         0.1682
     12 C9         -0.7641   -6.3591   -0.7345 C.3       1 <0>        -0.1751
     13 C10        -0.6405   -7.2450   -1.9757 C.3       1 <0>        -0.1759
     14 C11        -1.9039   -7.3061   -1.1149 C.3       1 <0>        -0.1675
     15 S1          3.9449   -0.8048   -0.0347 S.3       1 <0>        -0.0664
     16 C12         5.1752    0.5282   -0.0306 C.3       1 <0>        -0.1786
     17 C13         6.5810   -0.0751   -0.0557 C.3       1 <0>         0.4780
     18 F1          6.7358   -0.8490   -1.2108 F         1 <0>        -0.1701
     19 F2          7.5299    0.9529   -0.0525 F         1 <0>        -0.1709
     20 F3          6.7628   -0.8810    1.0734 F         1 <0>        -0.1707
     21 H1         -0.9756    1.8946    0.0645 H         1 <0>         0.1321
     22 H2          1.1278    3.1693    0.0534 H         1 <0>         0.1298
     23 H3          3.2877    1.9913    0.0122 H         1 <0>         0.1255
     24 H4         -0.9317   -0.5655    0.0254 H         1 <0>         0.1558
     25 H5          2.0086   -2.5580    0.3152 H         1 <0>         0.4083
     26 H6          0.8971   -4.5882   -0.0139 H         1 <0>         0.4002
     27 H7         -1.8948   -4.5493   -0.4390 H         1 <0>         0.0746
     28 H8         -1.0880   -4.6622   -2.0216 H         1 <0>         0.0720
     29 H9         -0.1601   -6.6218    0.1340 H         1 <0>         0.1112
     30 H10        -0.7177   -6.7609   -2.9493 H         1 <0>         0.0980
     31 H11         0.0451   -8.0908   -1.9241 H         1 <0>         0.0973
     32 H12        -2.0495   -8.1922   -0.4970 H         1 <0>         0.0996
     33 H13        -2.8123   -6.8623   -1.5222 H         1 <0>         0.0993
     34 H14         5.0336    1.1561   -0.9103 H         1 <0>         0.1357
     35 H15         5.0546    1.1312    0.8694 H         1 <0>         0.1355
@<TRIPOS>BOND
     1    1    6 ar
     2    1    2 ar
     3    1   21 1
     4    2    3 ar
     5    2   22 1
     6    3    4 ar
     7    3   23 1
     8    4    5 ar
     9    4   15 1
    10    5    6 ar
    11    5    7 1
    12    6   24 1
    13    7    8 am
    14    7   25 1
    15    8    9 2
    16    8   10 am
    17   10   11 1
    18   10   26 1
    19   11   12 1
    20   11   27 1
    21   11   28 1
    22   12   14 1
    23   12   13 1
    24   12   29 1
    25   13   14 1
    26   13   30 1
    27   13   31 1
    28   14   32 1
    29   14   33 1
    30   15   16 1
    31   16   17 1
    32   16   34 1
    33   16   35 1
    34   17   18 1
    35   17   19 1
    36   17   20 1
@<TRIPOS>MOLECULE
ZINC50891463
   42    42     0     0     0
SMALL
USER_CHARGES

@<TRIPOS>ATOM
      1 C1         -0.0187    1.5258    0.0104 C.3       1 <0>        -0.1545
      2 C2          0.0021   -0.0041    0.0020 C.3       1 <0>        -0.1250
      3 C3          0.7421   -0.5109    1.2415 C.3       1 <0>        -0.1212
      4 C4          0.7628   -2.0407    1.2331 C.3       1 <0>        -0.1283
      5 C5          1.5028   -2.5476    2.4727 C.3       1 <0>         0.1415
      6 H1          2.4958   -2.0997    2.5115 H         1 <0>         0.0904
      7 C6          1.6327   -4.0704    2.4020 C.3       1 <0>        -0.1650
      8 N1          0.7524   -2.1768    3.6750 N.am      1 <0>        -0.7226
      9 C7          1.3910   -2.0477    4.8549 C.2       1 <0>         0.5671
     10 O1          2.5900   -2.2391    4.9213 O.2       1 <0>        -0.5376
     11 C8          0.6354   -1.6743    6.0656 C.ar      1 <0>        -0.2019
     12 C9         -0.7441   -1.4596    5.9919 C.ar      1 <0>        -0.0050
     13 C10        -1.4461   -1.1119    7.1230 C.ar      1 <0>        -0.2058
     14 C11        -0.7840   -0.9734    8.3401 C.ar      1 <0>         0.2899
     15 C12         0.5895   -1.1861    8.4166 C.ar      1 <0>        -0.2754
     16 C13         1.2963   -1.5402    7.2899 C.ar      1 <0>         0.0395
     17 C14         1.3023   -1.0346    9.7357 C.3       1 <0>         0.5133
     18 F1          2.6655   -1.2968    9.5619 F         1 <0>        -0.1710
     19 F2          1.1352    0.2713   10.2088 F         1 <0>        -0.1782
     20 F3          0.7679   -1.9378   10.6609 F         1 <0>        -0.1784
     21 N2         -1.4962   -0.6215    9.4812 N.pl3     1 <0>        -0.7346
     22 C15        -2.9417   -0.3968    9.4023 C.3       1 <0>         0.0837
     23 H2          1.0039    1.9031    0.0027 H         1 <0>         0.0539
     24 H3         -0.5459    1.8868   -0.8726 H         1 <0>         0.0539
     25 H4         -0.5289    1.8773    0.9072 H         1 <0>         0.0531
     26 H5         -1.0205   -0.3814    0.0098 H         1 <0>         0.0606
     27 H6          0.5123   -0.3556   -0.8948 H         1 <0>         0.0617
     28 H7          1.7647   -0.1336    1.2338 H         1 <0>         0.0638
     29 H8          0.2319   -0.1594    2.1383 H         1 <0>         0.0622
     30 H9         -0.2598   -2.4180    1.2409 H         1 <0>         0.0683
     31 H10         1.2730   -2.3923    0.3363 H         1 <0>         0.0804
     32 H11         2.1910   -4.3463    1.5074 H         1 <0>         0.0666
     33 H12         2.1599   -4.4315    3.2850 H         1 <0>         0.0619
     34 H13         0.6397   -4.5183    2.3631 H         1 <0>         0.0567
     35 H14        -0.2040   -2.0241    3.6220 H         1 <0>         0.3971
     36 H15        -1.2582   -1.5662    5.0481 H         1 <0>         0.1336
     37 H16        -2.5118   -0.9459    7.0668 H         1 <0>         0.1407
     38 H17         2.3612   -1.7097    7.3509 H         1 <0>         0.1511
     39 H18        -1.0359   -0.5247   10.3296 H         1 <0>         0.4050
     40 H19        -3.3226   -0.1317   10.3886 H         1 <0>         0.0824
     41 H20        -3.1457    0.4148    8.7039 H         1 <0>         0.0632
     42 H21        -3.4324   -1.3063    9.0557 H         1 <0>         0.0633
@<TRIPOS>BOND
     1    1    2 1
     2    1   23 1
     3    1   24 1
     4    1   25 1
     5    2    3 1
     6    2   26 1
     7    2   27 1
     8    3    4 1
     9    3   28 1
    10    3   29 1
    11    4    5 1
    12    4   30 1
    13    4   31 1
    14    5    6 1
    15    5    7 1
    16    5    8 1
    17    7   32 1
    18    7   33 1
    19    7   34 1
    20    8    9 am
    21    8   35 1
    22    9   10 2
    23    9   11 1
    24   11   16 ar
    25   11   12 ar
    26   12   13 ar
    27   12   36 1
    28   13   14 ar
    29   13   37 1
    30   14   15 ar
    31   14   21 1
    32   15   16 ar
    33   15   17 1
    34   16   38 1
    35   17   18 1
    36   17   19 1
    37   17   20 1
    38   21   22 1
    39   21   39 1
    40   22   40 1
    41   22   41 1
    42   22   42 1
@<TRIPOS>MOLECULE
ZINC12021493
   65    67     0     0     0
SMALL
USER_CHARGES
4-[[4-[(2S)-3-(benzyl-methyl-amino)-2-hydroxy-propoxy]phenyl]methyl]-3,3-dimethyl-piperazin-2-one
@<TRIPOS>ATOM
      1 C1          3.7207   -4.3916   -8.5324 C.3       1 <0>        -0.1700
      2 C2          2.6748   -5.3395   -7.9423 C.3       1 <0>         0.0534
      3 C3          1.6630   -5.6853   -8.9980 C.2       1 <0>         0.5106
      4 O1          2.0544   -5.9338  -10.1186 O.2       1 <0>        -0.4799
      5 N1          0.3491   -5.7305   -8.7535 N.am      1 <0>        -0.7226
      6 C4         -0.2270   -5.4139   -7.4498 C.3       1 <0>         0.0843
      7 C5          0.8531   -5.4831   -6.3686 C.3       1 <0>        -0.0269
      8 C6          2.9523   -4.4744   -5.6979 C.3       1 <0>         0.0427
      9 C7          2.3028   -3.6136   -4.6452 C.ar      1 <0>        -0.1925
     10 C8          1.6914   -4.2019   -3.5534 C.ar      1 <0>        -0.0503
     11 C9          1.0953   -3.4151   -2.5870 C.ar      1 <0>        -0.1401
     12 C10         1.1105   -2.0335   -2.7126 C.ar      1 <0>         0.1609
     13 C11         1.7197   -1.4459   -3.8118 C.ar      1 <0>        -0.2066
     14 C12         2.3197   -2.2370   -4.7724 C.ar      1 <0>        -0.0508
     15 O2          0.5249   -1.2573   -1.7632 O.3       1 <0>        -0.2934
     16 C13         0.5789    0.1573   -1.9578 C.3       1 <0>         0.0267
     17 C14        -0.1273    0.8593   -0.7962 C.3       1 <0>         0.0843
     18 H1         -1.1417    0.4722   -0.7004 H         1 <0>         0.1366
     19 C15        -0.1791    2.3645   -1.0655 C.3       1 <0>        -0.0390
     20 C16        -2.2713    2.6471    0.1199 C.3       1 <0>        -0.0535
     21 C17        -0.7192    4.4973   -0.0545 C.3       1 <0>         0.0505
     22 C18        -1.2064    5.1402    1.2184 C.ar      1 <0>        -0.1693
     23 C19        -2.5321    5.5118    1.3416 C.ar      1 <0>        -0.0954
     24 C20        -2.9802    6.0967    2.5112 C.ar      1 <0>        -0.1130
     25 C21        -2.1001    6.3200    3.5536 C.ar      1 <0>        -0.0795
     26 C22        -0.7731    5.9536    3.4283 C.ar      1 <0>        -0.1121
     27 C23        -0.3263    5.3635    2.2608 C.ar      1 <0>        -0.0933
     28 O3          0.5915    0.6166    0.4148 O.3       1 <0>        -0.5413
     29 C24         3.3647   -6.6179   -7.4619 C.3       1 <0>        -0.1716
     30 H2          4.4606   -4.1471   -7.7703 H         1 <0>         0.0944
     31 H3          4.2140   -4.8745   -9.3760 H         1 <0>         0.1218
     32 H4          3.2327   -3.4777   -8.8714 H         1 <0>         0.0842
     33 H5         -0.2479   -5.9846   -9.4746 H         1 <0>         0.4274
     34 H6         -1.0157   -6.1300   -7.2194 H         1 <0>         0.1288
     35 H7         -0.6492   -4.4093   -7.4754 H         1 <0>         0.0967
     36 H8          1.1567   -6.5195   -6.2211 H         1 <0>         0.1440
     37 H9          0.4623   -5.0780   -5.4351 H         1 <0>         0.1505
     38 H10         3.8475   -3.9776   -6.0719 H         1 <0>         0.1424
     39 H11         3.2252   -5.4361   -5.2634 H         1 <0>         0.1439
     40 H12         1.6802   -5.2774   -3.4560 H         1 <0>         0.1443
     41 H13         0.6182   -3.8750   -1.7343 H         1 <0>         0.1475
     42 H14         1.7289   -0.3708   -3.9141 H         1 <0>         0.1375
     43 H15         2.7986   -1.7798   -5.6257 H         1 <0>         0.1368
     44 H16         0.0826    0.4146   -2.8936 H         1 <0>         0.0864
     45 H17         1.6196    0.4791   -1.9981 H         1 <0>         0.0823
     46 H18         0.8353    2.7516   -1.1613 H         1 <0>         0.1372
     47 H19        -0.7273    2.5497   -1.9893 H         1 <0>         0.1462
     48 H20        -2.3432    1.5695    0.2671 H         1 <0>         0.1225
     49 H21        -2.7494    3.1605    0.9542 H         1 <0>         0.1282
     50 H22        -2.7706    2.9210   -0.8095 H         1 <0>         0.1255
     51 H23         0.3286    4.7528   -0.2126 H         1 <0>         0.1347
     52 H24        -1.3122    4.8592   -0.8944 H         1 <0>         0.1382
     53 H25        -3.2187    5.3414    0.5255 H         1 <0>         0.1311
     54 H26        -4.0170    6.3827    2.6092 H         1 <0>         0.1379
     55 H27        -2.4493    6.7804    4.4660 H         1 <0>         0.1382
     56 H28        -0.0855    6.1280    4.2426 H         1 <0>         0.1379
     57 H29         0.7105    5.0772    2.1629 H         1 <0>         0.1304
     58 H30         1.5042    0.9356    0.4011 H         1 <0>         0.3915
     59 H31         2.6190   -7.3045   -7.0611 H         1 <0>         0.0850
     60 H32         3.8799   -7.0892   -8.2989 H         1 <0>         0.1179
     61 H33         4.0866   -6.3707   -6.6836 H         1 <0>         0.0987
     62 N2          2.0005   -4.6680   -6.8155 N.4       1 <0>        -0.3904
     63 H34         1.6595   -3.7509   -7.1266 H         1 <0>         0.4270
     64 N3         -0.8445    3.0301    0.0742 N.4       1 <0>        -0.3901
     65 H35        -0.3910    2.7319    0.9457 H         1 <0>         0.4347
@<TRIPOS>BOND
     1    1    2 1
     2    1   30 1
     3    1   31 1
     4    1   32 1
     5    2    3 1
     6    2   29 1
     7    2   62 1
     8    3    4 2
     9    3    5 am
    10    5    6 1
    11    5   33 1
    12    6    7 1
    13    6   34 1
    14    6   35 1
    15    7   36 1
    16    7   37 1
    17    7   62 1
    18    8    9 1
    19    8   38 1
    20    8   39 1
    21    8   62 1
    22    9   14 ar
    23    9   10 ar
    24   10   11 ar
    25   10   40 1
    26   11   12 ar
    27   11   41 1
    28   12   13 ar
    29   12   15 1
    30   13   14 ar
    31   13   42 1
    32   14   43 1
    33   15   16 1
    34   16   17 1
    35   16   44 1
    36   16   45 1
    37   17   18 1
    38   17   19 1
    39   17   28 1
    40   19   46 1
    41   19   47 1
    42   19   64 1
    43   20   48 1
    44   20   49 1
    45   20   50 1
    46   20   64 1
    47   21   22 1
    48   21   51 1
    49   21   52 1
    50   21   64 1
    51   22   27 ar
    52   22   23 ar
    53   23   24 ar
    54   23   53 1
    55   24   25 ar
    56   24   54 1
    57   25   26 ar
    58   25   55 1
    59   26   27 ar
    60   26   56 1
    61   27   57 1
    62   28   58 1
    63   29   59 1
    64   29   60 1
    65   29   61 1
    66   62   63 1
    67   64   65 1
@<TRIPOS>MOLECULE
ZINC39675562
   70    72     0     0     0
SMALL
USER_CHARGES

@<TRIPOS>ATOM
      1 C1          1.7507    1.7745   -0.4919 C.3       1 <0>        -0.1566
      2 C2          1.5514    0.2582   -0.4462 C.3       1 <0>        -0.1244
      3 C3          2.3624   -0.3281    0.7112 C.3       1 <0>        -0.1081
      4 C4          2.1631   -1.8444    0.7570 C.3       1 <0>        -0.1368
      5 C5          2.9619   -2.4218    1.8969 C.2       1 <0>         0.5391
      6 O1          3.6253   -1.6924    2.6032 O.2       1 <0>        -0.5203
      7 N1          2.9391   -3.7488    2.1316 N.am      1 <0>        -0.6279
      8 C6          2.2008   -4.7913    1.3806 C.3       1 <0>         0.1105
      9 C7          3.1736   -5.9902    1.3183 C.3       1 <0>        -0.1118
     10 H1          3.7354   -5.9749    0.3843 H         1 <0>         0.1142
     11 C8          4.1188   -5.7912    2.5150 C.3       1 <0>        -0.0717
     12 C9          3.6523   -4.4959    3.1953 C.3       1 <0>         0.1046
     13 C10         4.0041   -6.9671    3.4802 C.3       1 <0>        -0.1444
     14 C11         4.9951   -6.7747    4.6317 C.3       1 <0>        -0.0091
     15 N2          6.3590   -6.6865    4.0965 N.4       1 <0>        -0.5044
     16 C12         6.4857   -5.4996    3.2421 C.3       1 <0>        -0.0134
     17 C13         5.5579   -5.6381    2.0318 C.3       1 <0>        -0.1326
     18 C14         2.4177   -7.2869    1.4536 C.2       1 <0>         0.5294
     19 O2          1.3997   -7.3295    2.1114 O.2       1 <0>        -0.5054
     20 N3          2.8729   -8.3991    0.8436 N.am      1 <0>        -0.7265
     21 C15         2.1381   -9.6596    0.9751 C.3       1 <0>         0.1017
     22 C16         2.9256  -10.7823    0.2966 C.3       1 <0>         0.0635
     23 H2          3.1229  -10.5121   -0.7408 H         1 <0>         0.1511
     24 C17         4.2319  -10.9874    1.0195 C.ar      1 <0>        -0.1392
     25 C18         4.2666  -11.7239    2.1888 C.ar      1 <0>        -0.1181
     26 C19         5.4649  -11.9120    2.8518 C.ar      1 <0>        -0.0994
     27 C20         6.6285  -11.3641    2.3453 C.ar      1 <0>        -0.0951
     28 C21         6.5940  -10.6284    1.1755 C.ar      1 <0>        -0.1085
     29 C22         5.3964  -10.4438    0.5102 C.ar      1 <0>        -0.0952
     30 N4          2.1425  -12.0244    0.3386 N.4       1 <0>        -0.3814
     31 C23         0.8876  -11.8374   -0.4019 C.3       1 <0>        -0.0567
     32 C24         2.9159  -13.1119   -0.2754 C.3       1 <0>        -0.0507
     33 H3          2.8074    1.9978   -0.6390 H         1 <0>         0.0558
     34 H4          1.1729    2.1921   -1.3165 H         1 <0>         0.0590
     35 H5          1.4137    2.2137    0.4470 H         1 <0>         0.0569
     36 H6          0.4947    0.0349   -0.2991 H         1 <0>         0.0634
     37 H7          1.8884   -0.1811   -1.3851 H         1 <0>         0.0618
     38 H8          3.4191   -0.1048    0.5642 H         1 <0>         0.0709
     39 H9          2.0254    0.1112    1.6501 H         1 <0>         0.0726
     40 H10         1.1064   -2.0677    0.9040 H         1 <0>         0.0980
     41 H11         2.5001   -2.2836   -0.1820 H         1 <0>         0.0950
     42 H12         1.2898   -5.0684    1.9111 H         1 <0>         0.0994
     43 H13         1.9649   -4.4407    0.3759 H         1 <0>         0.0970
     44 H14         4.5092   -3.9247    3.5523 H         1 <0>         0.0913
     45 H15         2.9758   -4.7237    4.0191 H         1 <0>         0.0841
     46 H16         2.9900   -7.0146    3.8770 H         1 <0>         0.1252
     47 H17         4.2333   -7.8936    2.9539 H         1 <0>         0.0913
     48 H18         4.7552   -5.8563    5.1676 H         1 <0>         0.1369
     49 H19         4.9271   -7.6215    5.3146 H         1 <0>         0.1389
     50 H20         7.0150   -6.6210    4.8604 H         1 <0>         0.4374
     51 H21         6.2103   -4.6115    3.8110 H         1 <0>         0.1374
     52 H22         7.5166   -5.4064    2.9005 H         1 <0>         0.1428
     53 H23         5.8429   -6.5169    1.4534 H         1 <0>         0.0931
     54 H24         5.6393   -4.7486    1.4071 H         1 <0>         0.1205
     55 H25         3.6871   -8.3650    0.3175 H         1 <0>         0.4062
     56 H26         2.0066   -9.8950    2.0313 H         1 <0>         0.0958
     57 H27         1.1618   -9.5623    0.5003 H         1 <0>         0.0984
     58 H28         3.3575  -12.1520    2.5845 H         1 <0>         0.1223
     59 H29         5.4919  -12.4868    3.7658 H         1 <0>         0.1388
     60 H30         7.5646  -11.5105    2.8638 H         1 <0>         0.1378
     61 H31         7.5031  -10.2000    0.7800 H         1 <0>         0.1385
     62 H32         5.3701   -9.8721   -0.4057 H         1 <0>         0.1335
     63 H33         1.1083  -11.4676   -1.4032 H         1 <0>         0.1279
     64 H34         0.3627  -12.7899   -0.4738 H         1 <0>         0.1353
     65 H35         0.2607  -11.1157    0.1219 H         1 <0>         0.1276
     66 H36         3.8470  -13.2507    0.2741 H         1 <0>         0.1244
     67 H37         2.3348  -14.0336   -0.2442 H         1 <0>         0.1329
     68 H38         3.1398  -12.8585   -1.3116 H         1 <0>         0.1266
     69 H39         6.5601   -7.5130    3.5538 H         1 <0>         0.4237
     70 H40         1.9352  -12.2590    1.2978 H         1 <0>         0.4253
@<TRIPOS>BOND
     1    1    2 1
     2    1   33 1
     3    1   34 1
     4    1   35 1
     5    2    3 1
     6    2   36 1
     7    2   37 1
     8    3    4 1
     9    3   38 1
    10    3   39 1
    11    4    5 1
    12    4   40 1
    13    4   41 1
    14    5    6 2
    15    5    7 am
    16    7   12 1
    17    7    8 1
    18    8    9 1
    19    8   42 1
    20    8   43 1
    21    9   10 1
    22    9   11 1
    23    9   18 1
    24   11   17 1
    25   11   12 1
    26   11   13 1
    27   12   44 1
    28   12   45 1
    29   13   14 1
    30   13   46 1
    31   13   47 1
    32   14   15 1
    33   14   48 1
    34   14   49 1
    35   15   16 1
    36   15   50 1
    37   15   69 1
    38   16   17 1
    39   16   51 1
    40   16   52 1
    41   17   53 1
    42   17   54 1
    43   18   19 2
    44   18   20 am
    45   20   21 1
    46   20   55 1
    47   21   22 1
    48   21   56 1
    49   21   57 1
    50   22   23 1
    51   22   24 1
    52   22   30 1
    53   24   29 ar
    54   24   25 ar
    55   25   26 ar
    56   25   58 1
    57   26   27 ar
    58   26   59 1
    59   27   28 ar
    60   27   60 1
    61   28   29 ar
    62   28   61 1
    63   29   62 1
    64   30   31 1
    65   30   32 1
    66   30   70 1
    67   31   63 1
    68   31   64 1
    69   31   65 1
    70   32   66 1
    71   32   67 1
    72   32   68 1
@<TRIPOS>MOLECULE
ZINC43287071
   48    49     0     0     0
SMALL
USER_CHARGES

@<TRIPOS>ATOM
      1 C1          0.1800    1.4762   -0.1648 C.3       1 <0>        -0.1762
      2 C2          0.1389   -0.0513   -0.0873 C.3       1 <0>         0.0263
      3 H1          0.7135   -0.4725   -0.9122 H         1 <0>         0.1432
      4 C3          0.7421   -0.5109    1.2415 C.3       1 <0>         0.1627
      5 H2          0.1675   -0.0896    2.0664 H         1 <0>         0.1323
      6 C4          0.7016   -2.0154    1.3179 C.2       1 <0>        -0.2668
      7 C5         -0.0626   -2.8097    2.1070 C.2       1 <0>        -0.0918
      8 C6          0.0702   -4.1823    2.0055 C.2       1 <0>        -0.1468
      9 C7          0.9609   -4.6927    1.1198 C.2       1 <0>        -0.1108
     10 S1          1.6419   -3.2140    0.3871 S.3       1 <0>         0.1045
     11 Br1        -0.9741   -5.3301    3.0862 Br        1 <0>        -0.0018
     12 N1          2.1351   -0.0534    1.3312 N.3       1 <0>        -0.5068
     13 C8          2.9021   -0.4674    0.1494 C.3       1 <0>         0.0303
     14 C9          4.3024    0.1474    0.2073 C.3       1 <0>        -0.1066
     15 C10         5.0065   -0.3184    1.4848 C.3       1 <0>        -0.1203
     16 C11         4.1632    0.0828    2.6982 C.3       1 <0>        -0.1281
     17 C12         2.7670   -0.5301    2.5681 C.3       1 <0>         0.0541
     18 C13         6.3839    0.3411    1.5788 C.3       1 <0>        -0.0071
     19 N2          7.1060   -0.1965    2.7397 N.4       1 <0>        -0.3887
     20 C14         7.3728   -1.6260    2.5313 C.3       1 <0>        -0.0539
     21 C15         8.3778    0.5207    2.9004 C.3       1 <0>        -0.0492
     22 N3         -1.2542   -0.5088   -0.1770 N.4       1 <0>        -0.6353
     23 H3          1.2136    1.8157   -0.0983 H         1 <0>         0.1163
     24 H4         -0.2498    1.8037   -1.1115 H         1 <0>         0.0869
     25 H5         -0.3946    1.8975    0.6601 H         1 <0>         0.0875
     26 H6         -0.7644   -2.3770    2.8046 H         1 <0>         0.1502
     27 H7          1.1943   -5.7258    0.9088 H         1 <0>         0.2043
     28 H8          2.9831   -1.5543    0.1315 H         1 <0>         0.0558
     29 H9          2.3928   -0.1264   -0.7519 H         1 <0>         0.0921
     30 H10         4.8766   -0.1728   -0.6621 H         1 <0>         0.0882
     31 H11         4.2227    1.2344    0.2114 H         1 <0>         0.0911
     32 H12         5.1212   -1.4021    1.4631 H         1 <0>         0.0952
     33 H13         4.6380   -0.2835    3.6085 H         1 <0>         0.0708
     34 H14         4.0813    1.1689    2.7415 H         1 <0>         0.0942
     35 H15         2.1595   -0.2346    3.4235 H         1 <0>         0.0938
     36 H16         2.8486   -1.6166    2.5388 H         1 <0>         0.0526
     37 H17         6.9494    0.1324    0.6707 H         1 <0>         0.1338
     38 H18         6.2639    1.4184    1.6926 H         1 <0>         0.1348
     39 H19         7.9789   -1.7555    1.6346 H         1 <0>         0.1254
     40 H20         7.9086   -2.0249    3.3927 H         1 <0>         0.1276
     41 H21         6.4291   -2.1582    2.4121 H         1 <0>         0.1202
     42 H22         8.1798    1.5814    3.0550 H         1 <0>         0.1254
     43 H23         8.9136    0.1218    3.7618 H         1 <0>         0.1274
     44 H24         8.9838    0.3912    2.0037 H         1 <0>         0.1246
     45 H25        -1.6520   -0.2057   -1.0533 H         1 <0>         0.4441
     46 H26        -1.2813   -1.5161   -0.1258 H         1 <0>         0.4340
     47 H27         6.5450   -0.0766    3.5697 H         1 <0>         0.4239
     48 H28        -1.7861   -0.1188    0.5866 H         1 <0>         0.4365
@<TRIPOS>BOND
     1    1    2 1
     2    1   23 1
     3    1   24 1
     4    1   25 1
     5    2    3 1
     6    2    4 1
     7    2   22 1
     8    4    5 1
     9    4    6 1
    10    4   12 1
    11    6   10 1
    12    6    7 2
    13    7    8 1
    14    7   26 1
    15    8    9 2
    16    8   11 1
    17    9   10 1
    18    9   27 1
    19   12   17 1
    20   12   13 1
    21   13   14 1
    22   13   28 1
    23   13   29 1
    24   14   15 1
    25   14   30 1
    26   14   31 1
    27   15   16 1
    28   15   18 1
    29   15   32 1
    30   16   17 1
    31   16   33 1
    32   16   34 1
    33   17   35 1
    34   17   36 1
    35   18   19 1
    36   18   37 1
    37   18   38 1
    38   19   20 1
    39   19   21 1
    40   19   47 1
    41   20   39 1
    42   20   40 1
    43   20   41 1
    44   21   42 1
    45   21   43 1
    46   21   44 1
    47   22   45 1
    48   22   46 1
    49   22   48 1
@<TRIPOS>MOLECULE
ZINC63426886
   52    54     0     0     0
SMALL
USER_CHARGES

@<TRIPOS>ATOM
      1 C1         -0.0187    1.5258    0.0104 C.3       1 <0>        -0.1886
      2 C2          0.0021   -0.0041    0.0020 C.3       1 <0>         0.0297
      3 H1          0.5123   -0.3556   -0.8948 H         1 <0>         0.1518
      4 C3          0.7421   -0.5109    1.2415 C.3       1 <0>        -0.1032
      5 C4          0.8700   -2.0108    1.1719 C.2       1 <0>        -0.0233
      6 C5          1.9251   -2.7162    0.7042 C.ar      1 <0>        -0.1149
      7 C6          3.2192   -2.3134    0.1408 C.ar      1 <0>        -0.0430
      8 C7          4.0911   -3.2707   -0.2497 C.ar      1 <0>        -0.1207
      9 C8          3.7903   -4.6345   -0.1306 C.ar      1 <0>         0.0659
     10 C9          2.6224   -5.0820    0.3770 C.ar      1 <0>        -0.2069
     11 C10         1.6318   -4.1626    0.8197 C.ar      1 <0>         0.3334
     12 N1          0.4418   -4.3444    1.3387 N.pl3     1 <0>        -0.5741
     13 C11        -0.1527   -3.0323    1.6169 C.3       1 <0>         0.0617
     14 N2         -1.3761   -0.5125    0.0124 N.4       1 <0>        -0.5102
     15 C12        -2.0500   -0.1262   -1.2343 C.3       1 <0>        -0.0510
     16 C13        -3.4854   -0.6557   -1.2235 C.3       1 <0>         0.0871
     17 H2         -3.4743   -1.7319   -1.0509 H         1 <0>         0.1328
     18 C14        -4.1475   -0.3621   -2.5712 C.3       1 <0>         0.0218
     19 O1         -5.4460   -0.9578   -2.6037 O.3       1 <0>        -0.2917
     20 C15        -6.1735   -0.7901   -3.7393 C.ar      1 <0>         0.1669
     21 C16        -5.6460   -0.0719   -4.8027 C.ar      1 <0>        -0.2097
     22 C17        -6.3873    0.0968   -5.9561 C.ar      1 <0>        -0.0115
     23 C18        -7.6539   -0.4494   -6.0514 C.ar      1 <0>        -0.0748
     24 C19        -8.1820   -1.1653   -4.9929 C.ar      1 <0>        -0.0103
     25 C20        -7.4425   -1.3416   -3.8394 C.ar      1 <0>        -0.1408
     26 N3         -8.4459   -0.2672   -7.2883 N.pl3     1 <0>         0.0297
     27 O2         -7.9853    0.3589   -8.2143 O.2       1 <0>        -0.1507
     28 O3         -9.5536   -0.7444   -7.3727 O.3       1 <0>        -0.1453
     29 O4         -4.2221   -0.0137   -0.1809 O.3       1 <0>        -0.5413
     30 H3          1.0039    1.9031    0.0027 H         1 <0>         0.1190
     31 H4         -0.5459    1.8868   -0.8726 H         1 <0>         0.0939
     32 H5         -0.5289    1.8773    0.9072 H         1 <0>         0.0944
     33 H6          1.7350   -0.0630    1.2804 H         1 <0>         0.1554
     34 H7          0.1838   -0.2350    2.1361 H         1 <0>         0.1351
     35 H8          3.4713   -1.2681    0.0394 H         1 <0>         0.1670
     36 H9          5.0439   -2.9766   -0.6645 H         1 <0>         0.1678
     37 H10         4.5230   -5.3569   -0.4588 H         1 <0>         0.1716
     38 H11         2.4390   -6.1441    0.4471 H         1 <0>         0.1700
     39 H12        -0.3506   -2.9257    2.6835 H         1 <0>         0.1853
     40 H13        -1.0754   -2.9121    1.0491 H         1 <0>         0.1466
     41 H14        -1.3629   -1.5185    0.0898 H         1 <0>         0.4107
     42 H15        -2.0643    0.9605   -1.3179 H         1 <0>         0.1533
     43 H16        -1.5132   -0.5489   -2.0836 H         1 <0>         0.1513
     44 H17        -4.2389    0.7159   -2.7039 H         1 <0>         0.0870
     45 H18        -3.5374   -0.7766   -3.3737 H         1 <0>         0.0881
     46 H19        -4.6569    0.3553   -4.7286 H         1 <0>         0.1466
     47 H20        -5.9773    0.6561   -6.7840 H         1 <0>         0.1615
     48 H21        -9.1718   -1.5906   -5.0696 H         1 <0>         0.1679
     49 H22        -7.8537   -1.9046   -3.0146 H         1 <0>         0.1586
     50 H23        -4.2734    0.9478   -0.2701 H         1 <0>         0.3967
     51 H24         0.0255   -5.2030    1.5133 H         1 <0>         0.4642
     52 H25        -1.8730   -0.1212    0.7986 H         1 <0>         0.4389
@<TRIPOS>BOND
     1    1    2 1
     2    1   30 1
     3    1   31 1
     4    1   32 1
     5    2    3 1
     6    2    4 1
     7    2   14 1
     8    4    5 1
     9    4   33 1
    10    4   34 1
    11    5   13 1
    12    5    6 2
    13    6   11 ar
    14    6    7 ar
    15    7    8 ar
    16    7   35 1
    17    8    9 ar
    18    8   36 1
    19    9   10 ar
    20    9   37 1
    21   10   11 ar
    22   10   38 1
    23   11   12 2
    24   12   13 1
    25   12   51 1
    26   13   39 1
    27   13   40 1
    28   14   15 1
    29   14   41 1
    30   14   52 1
    31   15   16 1
    32   15   42 1
    33   15   43 1
    34   16   17 1
    35   16   18 1
    36   16   29 1
    37   18   19 1
    38   18   44 1
    39   18   45 1
    40   19   20 1
    41   20   25 ar
    42   20   21 ar
    43   21   22 ar
    44   21   46 1
    45   22   23 ar
    46   22   47 1
    47   23   24 ar
    48   23   26 1
    49   24   25 ar
    50   24   48 1
    51   25   49 1
    52   26   27 2
    53   26   28 1
    54   29   50 1
@<TRIPOS>MOLECULE
ZINC54540255
   59    61     0     0     0
SMALL
USER_CHARGES

@<TRIPOS>ATOM
      1 C1         -0.4339    1.2027   -0.0072 C.3       1 <0>        -0.0606
      2 N1         -0.1158   -0.2314   -0.0130 N.4       1 <0>        -0.3806
      3 C2          0.6625   -0.5652    1.1874 C.3       1 <0>        -0.0224
      4 C3         -0.2006   -0.3470    2.4318 C.3       1 <0>         0.1138
      5 N2          0.5755   -0.6798    3.6289 N.am      1 <0>        -0.7406
      6 C4          0.0155   -0.5627    4.8492 C.2       1 <0>         0.7167
      7 O1         -1.1338   -0.1807    4.9565 O.2       1 <0>        -0.5676
      8 N3          0.7296   -0.8689    5.9505 N.am      1 <0>        -0.7367
      9 C5          0.1209   -0.7415    7.2770 C.3       1 <0>         0.1203
     10 C6          1.0890   -1.2736    8.3356 C.3       1 <0>         0.1259
     11 C7          1.2842   -2.7548    8.1385 C.2       1 <0>        -0.1055
     12 C8          2.3341   -3.3359    7.5307 C.2       1 <0>        -0.1366
     13 C9          2.1085   -4.7311    7.5683 C.2       1 <0>        -0.2127
     14 C10         0.9342   -4.9192    8.1969 C.2       1 <0>         0.0148
     15 O2          0.4423   -3.7189    8.5451 O.3       1 <0>        -0.1767
     16 N4          0.5355   -1.0263    9.6737 N.4       1 <0>        -0.3927
     17 C11         1.4668   -1.5318   10.7145 C.3       1 <0>        -0.0006
     18 C12         1.0585   -0.7295   11.9755 C.3       1 <0>        -0.1443
     19 C13         0.7241    0.6672   11.4032 C.3       1 <0>        -0.1434
     20 C14         0.4129    0.4278    9.9142 C.3       1 <0>        -0.0144
     21 C15         0.6702   -0.5539   -1.2114 C.3       1 <0>         0.0472
     22 C16        -0.1720   -0.3274   -2.4404 C.ar      1 <0>        -0.1681
     23 C17        -0.9456   -1.3549   -2.9471 C.ar      1 <0>        -0.0933
     24 C18        -1.7182   -1.1472   -4.0744 C.ar      1 <0>        -0.1123
     25 C19        -1.7175    0.0882   -4.6948 C.ar      1 <0>        -0.0795
     26 C20        -0.9446    1.1159   -4.1876 C.ar      1 <0>        -0.1128
     27 C21        -0.1754    0.9094   -3.0577 C.ar      1 <0>        -0.0958
     28 H1          0.4907    1.7799   -0.0015 H         1 <0>         0.1258
     29 H2         -1.0114    1.4503   -0.8979 H         1 <0>         0.1306
     30 H3         -1.0171    1.4419    0.8820 H         1 <0>         0.1258
     31 H4          0.9743   -1.6085    1.1398 H         1 <0>         0.1388
     32 H5          1.5430    0.0752    1.2392 H         1 <0>         0.1390
     33 H6         -0.5124    0.6964    2.4793 H         1 <0>         0.0940
     34 H7         -1.0812   -0.9873    2.3800 H         1 <0>         0.0921
     35 H8          1.4924   -0.9845    3.5432 H         1 <0>         0.4063
     36 H9          1.6465   -1.1735    5.8649 H         1 <0>         0.4048
     37 H10        -0.0964    0.3076    7.4778 H         1 <0>         0.0997
     38 H11        -0.8044   -1.3167    7.3089 H         1 <0>         0.0991
     39 H12         2.0481   -0.7647    8.2393 H         1 <0>         0.1638
     40 H13         3.1857   -2.8331    7.0967 H         1 <0>         0.1595
     41 H14         2.7548   -5.4986    7.1687 H         1 <0>         0.1649
     42 H15         0.4680   -5.8736    8.3920 H         1 <0>         0.2200
     43 H16         1.3216   -2.6002   10.8746 H         1 <0>         0.1355
     44 H17         2.5006   -1.3197   10.4416 H         1 <0>         0.1356
     45 H18         0.1818   -1.1728   12.4476 H         1 <0>         0.1012
     46 H19         1.8882   -0.6692   12.6798 H         1 <0>         0.1214
     47 H20        -0.1463    1.0850   11.9092 H         1 <0>         0.1097
     48 H21         1.5800    1.3340   11.5084 H         1 <0>         0.1074
     49 H22         1.1279    0.9684    9.2939 H         1 <0>         0.1331
     50 H23        -0.6015    0.7572    9.6892 H         1 <0>         0.1379
     51 H24         1.5510    0.0869   -1.2515 H         1 <0>         0.1378
     52 H25         0.9817   -1.5976   -1.1717 H         1 <0>         0.1379
     53 H26        -0.9461   -2.3200   -2.4624 H         1 <0>         0.1308
     54 H27        -2.3220   -1.9501   -4.4707 H         1 <0>         0.1377
     55 H28        -2.3205    0.2502   -5.5760 H         1 <0>         0.1381
     56 H29        -0.9438    2.0809   -4.6725 H         1 <0>         0.1379
     57 H30         0.4256    1.7135   -2.6593 H         1 <0>         0.1312
     58 H31        -0.3653   -1.4714    9.7657 H         1 <0>         0.4332
     59 H32        -0.9716   -0.7658   -0.0182 H         1 <0>         0.4277
@<TRIPOS>BOND
     1    1    2 1
     2    1   28 1
     3    1   29 1
     4    1   30 1
     5    2    3 1
     6    2   21 1
     7    2   59 1
     8    3    4 1
     9    3   31 1
    10    3   32 1
    11    4    5 1
    12    4   33 1
    13    4   34 1
    14    5    6 am
    15    5   35 1
    16    6    7 2
    17    6    8 am
    18    8    9 1
    19    8   36 1
    20    9   10 1
    21    9   37 1
    22    9   38 1
    23   10   11 1
    24   10   16 1
    25   10   39 1
    26   11   15 1
    27   11   12 2
    28   12   13 1
    29   12   40 1
    30   13   14 2
    31   13   41 1
    32   14   15 1
    33   14   42 1
    34   16   20 1
    35   16   17 1
    36   16   58 1
    37   17   18 1
    38   17   43 1
    39   17   44 1
    40   18   19 1
    41   18   45 1
    42   18   46 1
    43   19   20 1
    44   19   47 1
    45   19   48 1
    46   20   49 1
    47   20   50 1
    48   21   22 1
    49   21   51 1
    50   21   52 1
    51   22   27 ar
    52   22   23 ar
    53   23   24 ar
    54   23   53 1
    55   24   25 ar
    56   24   54 1
    57   25   26 ar
    58   25   55 1
    59   26   27 ar
    60   26   56 1
    61   27   57 1
@<TRIPOS>MOLECULE
ZINC05357438
   49    51     0     0     0
SMALL
USER_CHARGES
1-(4-chlorophenoxy)-3-[2-(1H-indol-3-yl)-1-methyl-ethyl]amino-propan-2-ol
@<TRIPOS>ATOM
      1 C1         -0.0127    1.0858    0.0080 C.3       1 <0>        -0.1838
      2 C2         -0.7288    1.5792    1.2668 C.3       1 <0>         0.0321
      3 H1         -1.7514    1.2020    1.2746 H         1 <0>         0.1373
      4 C3         -0.7496    3.1091    1.2752 C.3       1 <0>        -0.0609
      5 C4         -1.5601    3.5940    2.4495 C.2       1 <0>        -0.2369
      6 C5         -2.8595    3.9309    2.4382 C.2       1 <0>         0.0975
      7 N1         -3.2506    4.3236    3.6893 N.pl3     1 <0>        -0.5859
      8 H2         -4.1449    4.6132    3.9283 H         1 <0>         0.4255
      9 C6         -2.1853    4.2470    4.5583 C.ar      1 <0>         0.0994
     10 C7         -1.0811    3.7811    3.8212 C.ar      1 <0>        -0.1199
     11 C8          0.1506    3.5986    4.4522 C.ar      1 <0>        -0.1110
     12 C9          0.2768    3.8707    5.7855 C.ar      1 <0>        -0.1100
     13 C10        -0.8102    4.3273    6.5177 C.ar      1 <0>        -0.0913
     14 C11        -2.0332    4.5215    5.9133 C.ar      1 <0>        -0.1128
     15 C12        -0.4575   -0.2628    2.8147 C.3       1 <0>        -0.0394
     16 C13         0.3029   -0.7343    4.0558 C.3       1 <0>         0.0853
     17 H3          1.3752   -0.6582    3.8757 H         1 <0>         0.1347
     18 C14        -0.0620   -2.1897    4.3552 C.3       1 <0>         0.0289
     19 O1          0.7336   -2.6663    5.4423 O.3       1 <0>        -0.2976
     20 C15         0.5325   -3.9512    5.8373 C.ar      1 <0>         0.1242
     21 C16        -0.4153   -4.7348    5.1954 C.ar      1 <0>        -0.1976
     22 C17        -0.6150   -6.0420    5.5952 C.ar      1 <0>        -0.0694
     23 C18         0.1223   -6.5665    6.6420 C.ar      1 <0>        -0.0660
     24 C19         1.0644   -5.7848    7.2870 C.ar      1 <0>        -0.0669
     25 C20         1.2706   -4.4789    6.8866 C.ar      1 <0>        -0.1313
     26 Cl1        -0.1347   -8.2076    7.1466 Cl        1 <0>        -0.0574
     27 O2         -0.0520    0.0849    5.1716 O.3       1 <0>        -0.5370
     28 H4          0.0021   -0.0041    0.0020 H         1 <0>         0.0804
     29 H5          1.0099    1.4631    0.0003 H         1 <0>         0.0843
     30 H6         -0.5399    1.4469   -0.8751 H         1 <0>         0.1087
     31 H7          0.2699    3.4858    1.3571 H         1 <0>         0.0945
     32 H8         -1.1977    3.4715    0.3500 H         1 <0>         0.1189
     33 H9         -3.5011    3.8973    1.5702 H         1 <0>         0.1777
     34 H10         1.0008    3.2432    3.8888 H         1 <0>         0.1129
     35 H11         1.2300    3.7297    6.2731 H         1 <0>         0.1312
     36 H12        -0.6949    4.5380    7.5707 H         1 <0>         0.1350
     37 H13        -2.8735    4.8755    6.4921 H         1 <0>         0.1287
     38 H14        -1.5270   -0.2545    3.0251 H         1 <0>         0.1363
     39 H15        -0.2556   -0.9409    1.9855 H         1 <0>         0.1448
     40 H16        -1.1169   -2.2522    4.6222 H         1 <0>         0.0775
     41 H17         0.1261   -2.8004    3.4721 H         1 <0>         0.0828
     42 H18        -0.9938   -4.3245    4.3809 H         1 <0>         0.1332
     43 H19        -1.3499   -6.6537    5.0930 H         1 <0>         0.1395
     44 H20         1.6392   -6.1961    8.1036 H         1 <0>         0.1459
     45 H21         2.0063   -3.8692    7.3900 H         1 <0>         0.1436
     46 H22        -0.9939    0.0660    5.3897 H         1 <0>         0.3883
     47 N2         -0.0110    1.0982    2.4623 N.4       1 <0>        -0.5185
     48 H23        -0.2003    1.7310    3.2484 H         1 <0>         0.4367
     49 H24         0.9974    1.0845    2.2692 H         1 <0>         0.4280
@<TRIPOS>BOND
     1    1    2 1
     2    1   28 1
     3    1   29 1
     4    1   30 1
     5    2    3 1
     6    2    4 1
     7    2   47 1
     8    4    5 1
     9    4   31 1
    10    4   32 1
    11    5   10 1
    12    5    6 2
    13    6    7 1
    14    6   33 1
    15    7    8 1
    16    7    9 1
    17    9   14 ar
    18    9   10 ar
    19   10   11 ar
    20   11   12 ar
    21   11   34 1
    22   12   13 ar
    23   12   35 1
    24   13   14 ar
    25   13   36 1
    26   14   37 1
    27   15   16 1
    28   15   38 1
    29   15   39 1
    30   15   47 1
    31   16   17 1
    32   16   18 1
    33   16   27 1
    34   18   19 1
    35   18   40 1
    36   18   41 1
    37   19   20 1
    38   20   25 ar
    39   20   21 ar
    40   21   22 ar
    41   21   42 1
    42   22   23 ar
    43   22   43 1
    44   23   24 ar
    45   23   26 1
    46   24   25 ar
    47   24   44 1
    48   25   45 1
    49   27   46 1
    50   47   48 1
    51   47   49 1
@<TRIPOS>MOLECULE
ZINC24828417
   59    61     0     0     0
SMALL
USER_CHARGES
N-(2-hydroxyphenyl)-1-[(1S)-1-methyl-2-oxo-2-[[(1S)-1-phenylethyl]amino]ethyl]piperidine-4-carboxamide
@<TRIPOS>ATOM
      1 C1         -8.4867   -2.0739    2.8462 C.3       1 <0>        -0.1605
      2 C2         -7.9862   -2.9290    1.6804 C.3       1 <0>         0.1891
      3 H1         -7.0606   -3.4595    1.9485 H         1 <0>         0.1023
      4 C3         -9.0505   -3.9232    1.2933 C.ar      1 <0>        -0.1054
      5 C4        -10.1148   -3.5250    0.5061 C.ar      1 <0>        -0.1183
      6 C5        -11.0888   -4.4379    0.1474 C.ar      1 <0>        -0.1124
      7 C6        -11.0036   -5.7468    0.5838 C.ar      1 <0>        -0.1097
      8 C7         -9.9419   -6.1438    1.3750 C.ar      1 <0>        -0.1097
      9 C8         -8.9656   -5.2319    1.7301 C.ar      1 <0>        -0.1049
     10 N1         -7.6848   -2.0658    0.5357 N.am      1 <0>        -0.7100
     11 C9         -6.4818   -1.4652    0.4429 C.2       1 <0>         0.5076
     12 O1         -5.6487   -1.6395    1.3069 O.2       1 <0>        -0.5266
     13 C10        -6.1718   -0.5772   -0.7346 C.3       1 <0>         0.0128
     14 H2         -7.0887   -0.0693   -1.0682 H         1 <0>         0.1551
     15 C11        -5.5697   -1.4176   -1.8626 C.3       1 <0>        -0.1813
     16 N2         -5.2111    0.4572   -0.3283 N.4       1 <0>        -0.3827
     17 C12        -5.6717    1.1590    0.8765 C.3       1 <0>        -0.0153
     18 C13        -4.7243    2.3205    1.1855 C.3       1 <0>        -0.1219
     19 C14        -3.3094    1.7755    1.3992 C.3       1 <0>        -0.1183
     20 C15        -2.8723    1.0079    0.1485 C.3       1 <0>        -0.1359
     21 C16        -3.8734   -0.1155   -0.1304 C.3       1 <0>        -0.0224
     22 C17        -2.3606    2.9203    1.6447 C.2       1 <0>         0.5139
     23 O2         -2.7741    4.0606    1.6486 O.2       1 <0>        -0.5170
     24 N3         -1.0525    2.6771    1.8598 N.am      1 <0>        -0.6638
     25 C18        -0.1913    3.7285    2.2011 C.ar      1 <0>         0.1024
     26 C19        -0.7062    4.9126    2.7082 C.ar      1 <0>        -0.1031
     27 C20         0.1451    5.9481    3.0441 C.ar      1 <0>        -0.1397
     28 C21         1.5105    5.8072    2.8764 C.ar      1 <0>        -0.0919
     29 C22         2.0309    4.6302    2.3716 C.ar      1 <0>        -0.1933
     30 C23         1.1846    3.5853    2.0374 C.ar      1 <0>         0.1285
     31 O3          1.6954    2.4248    1.5464 O.3       1 <0>        -0.5201
     32 H3         -7.7098   -1.3482    3.1287 H         1 <0>         0.0629
     33 H4         -8.7129   -2.7221    3.7057 H         1 <0>         0.0789
     34 H5         -9.3972   -1.5366    2.5424 H         1 <0>         0.0652
     35 H6        -10.1835   -2.5014    0.1685 H         1 <0>         0.1179
     36 H7        -11.9182   -4.1278   -0.4710 H         1 <0>         0.1277
     37 H8        -11.7664   -6.4593    0.3064 H         1 <0>         0.1284
     38 H9         -9.8753   -7.1664    1.7160 H         1 <0>         0.1294
     39 H10        -8.1362   -5.5420    2.3485 H         1 <0>         0.1257
     40 H11        -8.4403   -1.9079   -0.2480 H         1 <0>         0.4295
     41 H12        -5.3434   -0.7694   -2.7221 H         1 <0>         0.0983
     42 H13        -6.2891   -2.1922   -2.1668 H         1 <0>         0.1102
     43 H14        -4.6438   -1.8953   -1.5098 H         1 <0>         0.0933
     44 H15        -6.6864    1.5489    0.7083 H         1 <0>         0.1321
     45 H16        -5.6836    0.4602    1.7259 H         1 <0>         0.1398
     46 H17        -4.7235    3.0272    0.3426 H         1 <0>         0.0985
     47 H18        -5.0618    2.8366    2.0964 H         1 <0>         0.1202
     48 H19        -3.2885    1.1119    2.2763 H         1 <0>         0.1195
     49 H20        -2.8401    1.6944   -0.7104 H         1 <0>         0.0947
     50 H21        -1.8729    0.5785    0.3124 H         1 <0>         0.1162
     51 H22        -3.8938   -0.8082    0.7238 H         1 <0>         0.1544
     52 H23        -3.5698   -0.6599   -1.0368 H         1 <0>         0.1365
     53 H24        -0.6610    1.6533    1.7674 H         1 <0>         0.4382
     54 H25        -1.7722    5.0253    2.8402 H         1 <0>         0.1574
     55 H26        -0.2569    6.8695    3.4388 H         1 <0>         0.1290
     56 H27         2.1721    6.6189    3.1409 H         1 <0>         0.1283
     57 H28         3.0978    4.5234    2.2419 H         1 <0>         0.1327
     58 H29         2.7821    2.3132    1.4177 H         1 <0>         0.4429
     59 H30        -5.1429    1.1955   -1.1409 H         1 <0>         0.4447
@<TRIPOS>BOND
     1    1    2 1
     2    1   32 1
     3    1   33 1
     4    1   34 1
     5    2    3 1
     6    2    4 1
     7    2   10 1
     8    4    9 ar
     9    4    5 ar
    10    5    6 ar
    11    5   35 1
    12    6    7 ar
    13    6   36 1
    14    7    8 ar
    15    7   37 1
    16    8    9 ar
    17    8   38 1
    18    9   39 1
    19   10   11 am
    20   10   40 1
    21   11   12 2
    22   11   13 1
    23   13   14 1
    24   13   15 1
    25   13   16 1
    26   15   41 1
    27   15   42 1
    28   15   43 1
    29   16   21 1
    30   16   17 1
    31   16   59 1
    32   17   18 1
    33   17   44 1
    34   17   45 1
    35   18   19 1
    36   18   46 1
    37   18   47 1
    38   19   20 1
    39   19   22 1
    40   19   48 1
    41   20   21 1
    42   20   49 1
    43   20   50 1
    44   21   51 1
    45   21   52 1
    46   22   23 2
    47   22   24 am
    48   24   25 1
    49   24   53 1
    50   25   30 ar
    51   25   26 ar
    52   26   27 ar
    53   26   54 1
    54   27   28 ar
    55   27   55 1
    56   28   29 ar
    57   28   56 1
    58   29   30 ar
    59   29   57 1
    60   30   31 1
    61   31   58 1
@<TRIPOS>MOLECULE
ZINC42691810
   48    48     0     0     0
SMALL
USER_CHARGES

@<TRIPOS>ATOM
      1 C1         -0.8935   -3.7306    3.3485 C.3       1 <0>        -0.1514
      2 C2         -1.3190   -2.9232    2.1205 C.3       1 <0>        -0.1214
      3 C3         -2.0286   -1.6449    2.5713 C.3       1 <0>        -0.1666
      4 C4         -0.0823   -2.5569    1.2974 C.3       1 <0>         0.1431
      5 N1         -0.5000   -1.9267    0.0425 N.pl3     1 <0>        -0.6569
      6 C5         -0.6587   -0.4721   -0.0294 C.3       1 <0>         0.1102
      7 C6          0.6805    0.1669   -0.2923 C.2       1 <0>         0.4854
      8 O1          1.6536   -0.5271   -0.4980 O.2       1 <0>        -0.5140
      9 N2          0.7968    1.5096   -0.2989 N.am      1 <0>        -0.8552
     10 C7         -0.7469   -2.7128   -1.0853 C.ar      1 <0>         0.1999
     11 C8          0.3094   -3.1459   -1.8766 C.ar      1 <0>        -0.0852
     12 C9          0.0616   -3.9238   -2.9914 C.ar      1 <0>        -0.0570
     13 C10        -1.2374   -4.2707   -3.3196 C.ar      1 <0>        -0.0907
     14 C11        -2.2904   -3.8409   -2.5337 C.ar      1 <0>        -0.0790
     15 C12        -2.0487   -3.0678   -1.4148 C.ar      1 <0>        -0.1620
     16 C13        -3.1970   -2.6051   -0.5555 C.3       1 <0>         0.0286
     17 N3         -3.6248   -1.2681   -0.9882 N.4       1 <0>        -0.5114
     18 C14        -4.8406   -0.8830   -0.2592 C.3       1 <0>         0.0200
     19 C15        -4.5173   -0.7342    1.2289 C.3       1 <0>        -0.1966
     20 C16        -5.3616    0.4485   -0.8036 C.3       1 <0>        -0.1849
     21 Br1         1.4984   -4.5144   -4.0697 Br        1 <0>        -0.0161
     22 H1         -1.7745   -3.9915    3.9348 H         1 <0>         0.0623
     23 H2         -0.3880   -4.6413    3.0273 H         1 <0>         0.0613
     24 H3         -0.2149   -3.1341    3.9582 H         1 <0>         0.0620
     25 H4         -1.9976   -3.5197    1.5107 H         1 <0>         0.0708
     26 H5         -2.9522   -1.9051    3.0883 H         1 <0>         0.0654
     27 H6         -1.3790   -1.0875    3.2463 H         1 <0>         0.0683
     28 H7         -2.2599   -1.0313    1.7006 H         1 <0>         0.0476
     29 H8          0.5384   -1.8625    1.8637 H         1 <0>         0.0796
     30 H9          0.4887   -3.4591    1.0784 H         1 <0>         0.0787
     31 H10        -1.3460   -0.2211   -0.8373 H         1 <0>         0.0734
     32 H11        -1.0582   -0.1031    0.9152 H         1 <0>         0.1115
     33 H12         0.0185    2.0647   -0.1345 H         1 <0>         0.4000
     34 H13         1.6588    1.9210   -0.4682 H         1 <0>         0.4093
     35 H14         1.3231   -2.8748   -1.6211 H         1 <0>         0.1534
     36 H15        -1.4289   -4.8782   -4.1918 H         1 <0>         0.1470
     37 H16        -3.3029   -4.1134   -2.7926 H         1 <0>         0.1436
     38 H17        -4.0289   -3.3025   -0.6544 H         1 <0>         0.1407
     39 H18        -2.8783   -2.5652    0.4861 H         1 <0>         0.1511
     40 H19        -2.8919   -0.6018   -0.7957 H         1 <0>         0.4120
     41 H20        -5.6018   -1.6520   -0.3905 H         1 <0>         0.1427
     42 H21        -3.7621    0.0405    1.3609 H         1 <0>         0.0823
     43 H22        -5.4213   -0.4566    1.7710 H         1 <0>         0.1097
     44 H23        -4.1384   -1.6806    1.6148 H         1 <0>         0.0890
     45 H24        -5.5918    0.3425   -1.8637 H         1 <0>         0.0830
     46 H25        -6.2637    0.7342   -0.2626 H         1 <0>         0.1096
     47 H26        -4.6003    1.2175   -0.6723 H         1 <0>         0.0799
     48 H27        -3.8163   -1.2805   -1.9788 H         1 <0>         0.4267
@<TRIPOS>BOND
     1    1    2 1
     2    1   22 1
     3    1   23 1
     4    1   24 1
     5    2    3 1
     6    2    4 1
     7    2   25 1
     8    3   26 1
     9    3   27 1
    10    3   28 1
    11    4    5 1
    12    4   29 1
    13    4   30 1
    14    5    6 1
    15    5   10 1
    16    6    7 1
    17    6   31 1
    18    6   32 1
    19    7    8 2
    20    7    9 am
    21    9   33 1
    22    9   34 1
    23   10   15 ar
    24   10   11 ar
    25   11   12 ar
    26   11   35 1
    27   12   13 ar
    28   12   21 1
    29   13   14 ar
    30   13   36 1
    31   14   15 ar
    32   14   37 1
    33   15   16 1
    34   16   17 1
    35   16   38 1
    36   16   39 1
    37   17   18 1
    38   17   40 1
    39   17   48 1
    40   18   19 1
    41   18   20 1
    42   18   41 1
    43   19   42 1
    44   19   43 1
    45   19   44 1
    46   20   45 1
    47   20   46 1
    48   20   47 1
@<TRIPOS>MOLECULE
ZINC53124933
   52    53     0     0     0
SMALL
USER_CHARGES

@<TRIPOS>ATOM
      1 C1          1.2064    1.2355   -0.1716 C.3       1 <0>        -0.1250
      2 C2          0.5774   -0.1312   -0.0844 C.ar      1 <0>        -0.0796
      3 C3         -0.0268   -0.6858   -1.1979 C.ar      1 <0>        -0.0199
      4 C4         -0.6046   -1.9396   -1.1222 C.ar      1 <0>        -0.6594
      5 C5         -0.5800   -2.6424    0.0668 C.ar      1 <0>        -0.0263
      6 C6          0.0258   -2.0883    1.1866 C.ar      1 <0>         0.1065
      7 C7          0.6100   -0.8308    1.1058 C.ar      1 <0>        -0.0443
      8 C8          1.2737   -0.2281    2.3171 C.3       1 <0>        -0.1322
      9 N1          0.0521   -2.7974    2.3926 N.am      1 <0>        -0.6393
     10 C9         -0.0314   -4.1425    2.3854 C.2       1 <0>         0.5017
     11 O1         -0.0283   -4.7447    1.3326 O.2       1 <0>        -0.5059
     12 C10        -0.1286   -4.8984    3.6855 C.3       1 <0>        -0.0350
     13 N2         -0.2077   -6.3391    3.4096 N.4       1 <0>        -0.3700
     14 C11        -1.4570   -6.6329    2.6948 C.3       1 <0>        -0.0694
     15 C12        -0.1818   -7.0824    4.6763 C.3       1 <0>         0.0808
     16 H1         -1.0309   -6.7830    5.2907 H         1 <0>         0.1500
     17 C13         1.1194   -6.7764    5.4207 C.3       1 <0>        -0.1818
     18 C14        -0.2629   -8.5604    4.3933 C.ar      1 <0>        -0.1719
     19 C15         0.1690   -9.0562    3.1775 C.ar      1 <0>        -0.1038
     20 C16         0.0947  -10.4117    2.9176 C.ar      1 <0>        -0.1083
     21 C17        -0.4116  -11.2732    3.8732 C.ar      1 <0>        -0.0633
     22 C18        -0.8435  -10.7799    5.0895 C.ar      1 <0>        -0.1365
     23 C19        -0.7647   -9.4227    5.3530 C.ar      1 <0>         0.1312
     24 F1         -1.1824   -8.9398    6.5436 F         1 <0>        -0.1265
     25 S1         -1.3737   -2.6416   -2.5436 S.o2      1 <0>         2.7020
     26 O2         -2.3173   -3.5914   -2.0674 O.2       1 <0>        -0.9608
     27 O3         -1.7426   -1.5563   -3.3834 O.2       1 <0>        -0.9509
     28 N3         -0.2117   -3.4959   -3.3573 N.pl3     1 <0>        -1.2457
     29 H2          2.2504    1.1367   -0.4688 H         1 <0>         0.0817
     30 H3          0.6735    1.8343   -0.9102 H         1 <0>         0.0800
     31 H4          1.1503    1.7240    0.8012 H         1 <0>         0.0767
     32 H5         -0.0477   -0.1383   -2.1286 H         1 <0>         0.1512
     33 H6         -1.0318   -3.6216    0.1254 H         1 <0>         0.1617
     34 H7          0.5412    0.3453    2.8852 H         1 <0>         0.0873
     35 H8          1.6776   -1.0234    2.9435 H         1 <0>         0.0673
     36 H9          2.0824    0.4298    1.9987 H         1 <0>         0.0893
     37 H10         0.1304   -2.3208    3.2338 H         1 <0>         0.4225
     38 H11         0.7532   -4.6925    4.2923 H         1 <0>         0.1675
     39 H12        -1.0220   -4.5820    4.2238 H         1 <0>         0.1682
     40 H13        -1.5157   -7.7019    2.4901 H         1 <0>         0.1312
     41 H14        -2.3061   -6.3335    3.3092 H         1 <0>         0.1240
     42 H15        -1.4762   -6.0813    1.7549 H         1 <0>         0.1448
     43 H16         1.1386   -7.3279    6.3607 H         1 <0>         0.1117
     44 H17         1.9685   -7.0758    4.8064 H         1 <0>         0.0870
     45 H18         1.1781   -5.7074    5.6255 H         1 <0>         0.0873
     46 H19         0.5643   -8.3841    2.4302 H         1 <0>         0.1282
     47 H20         0.4321  -10.7982    1.9672 H         1 <0>         0.1451
     48 H21        -0.4698  -12.3321    3.6688 H         1 <0>         0.1484
     49 H22        -1.2392  -11.4530    5.8356 H         1 <0>         0.1516
     50 H23        -0.4587   -4.2766   -3.8774 H         1 <0>         0.4242
     51 H24         0.7160   -3.2157   -3.3139 H         1 <0>         0.4180
     52 H25         0.5783   -6.6162    2.8408 H         1 <0>         0.4286
@<TRIPOS>BOND
     1    1    2 1
     2    1   29 1
     3    1   30 1
     4    1   31 1
     5    2    7 ar
     6    2    3 ar
     7    3    4 ar
     8    3   32 1
     9    4    5 ar
    10    4   25 1
    11    5    6 ar
    12    5   33 1
    13    6    7 ar
    14    6    9 1
    15    7    8 1
    16    8   34 1
    17    8   35 1
    18    8   36 1
    19    9   10 am
    20    9   37 1
    21   10   11 2
    22   10   12 1
    23   12   13 1
    24   12   38 1
    25   12   39 1
    26   13   14 1
    27   13   15 1
    28   13   52 1
    29   14   40 1
    30   14   41 1
    31   14   42 1
    32   15   16 1
    33   15   17 1
    34   15   18 1
    35   17   43 1
    36   17   44 1
    37   17   45 1
    38   18   23 ar
    39   18   19 ar
    40   19   20 ar
    41   19   46 1
    42   20   21 ar
    43   20   47 1
    44   21   22 ar
    45   21   48 1
    46   22   23 ar
    47   22   49 1
    48   23   24 1
    49   25   26 2
    50   25   27 2
    51   25   28 1
    52   28   50 1
    53   28   51 1
@<TRIPOS>MOLECULE
ZINC65256988
   51    54     0     0     0
SMALL
USER_CHARGES

@<TRIPOS>ATOM
      1 C1         -0.0167    1.3792    0.0096 C.ar      1 <0>        -0.0575
      2 C2          1.1698    2.0871    0.0021 C.ar      1 <0>        -0.1240
      3 C3          2.3802    1.4101   -0.0130 C.ar      1 <0>         0.1335
      4 C4          2.3970    0.0228   -0.0206 C.ar      1 <0>        -0.1808
      5 C5          1.2088   -0.6814   -0.0130 C.ar      1 <0>        -0.0656
      6 C6          0.0021   -0.0041    0.0020 C.ar      1 <0>        -0.0444
      7 Cl1        -1.4900   -0.8913    0.0114 Cl        1 <0>        -0.0339
      8 C7          3.7107   -0.7153   -0.0376 C.3       1 <0>         0.0507
      9 N1          4.2689   -0.7528    1.3207 N.4       1 <0>        -0.5011
     10 C8          5.5496   -1.4722    1.3042 C.3       1 <0>         0.0063
     11 H1          5.4300   -2.4594    0.8577 H         1 <0>         0.1619
     12 C9          6.6290   -0.6544    0.5470 C.3       1 <0>        -0.1474
     13 C10         7.9317   -1.1771    1.2022 C.3       1 <0>         0.1149
     14 N2          7.5860   -1.3783    2.6212 N.pl3     1 <0>        -0.6146
     15 C11         6.1313   -1.5843    2.7292 C.3       1 <0>         0.1091
     16 C12         8.4810   -1.3782    3.6776 C.ar      1 <0>         0.4340
     17 C13         9.8191   -1.0648    3.4447 C.ar      1 <0>        -0.2297
     18 C14        10.7009   -1.0656    4.4913 C.ar      1 <0>         0.0289
     19 C15        10.2209   -1.3847    5.7710 C.ar      1 <0>        -0.2325
     20 C16         8.8682   -1.6884    5.9310 C.ar      1 <0>         0.1878
     21 N3          8.0521   -1.6708    4.8978 N.ar      1 <0>        -0.5431
     22 C17        11.1334   -1.3992    6.9303 C.2       1 <0>         0.5704
     23 O1         12.3105   -1.1336    6.7809 O.2       1 <0>        -0.5295
     24 N4         10.6622   -1.7070    8.1549 N.am      1 <0>        -0.6986
     25 C18        11.5682   -1.7214    9.3061 C.3       1 <0>         0.0750
     26 C19        11.4419   -2.8864   10.2899 C.3       1 <0>        -0.1903
     27 C20        10.9564   -1.4916   10.6895 C.3       1 <0>        -0.1865
     28 O2          3.5485    2.1048   -0.0209 O.3       1 <0>        -0.4884
     29 H2         -0.9593    1.9061    0.0260 H         1 <0>         0.1530
     30 H3          1.1548    3.1670    0.0076 H         1 <0>         0.1537
     31 H4          1.2214   -1.7613   -0.0189 H         1 <0>         0.1499
     32 H5          3.5510   -1.7333   -0.3929 H         1 <0>         0.1449
     33 H6          4.4065   -0.2034   -0.7023 H         1 <0>         0.1482
     34 H7          4.4168    0.1896    1.6497 H         1 <0>         0.4221
     35 H8          6.6114   -0.8777   -0.5198 H         1 <0>         0.1186
     36 H9          6.5045    0.4141    0.7230 H         1 <0>         0.1020
     37 H10         8.2328   -2.1208    0.7476 H         1 <0>         0.0871
     38 H11         8.7273   -0.4381    1.1067 H         1 <0>         0.0995
     39 H12         5.6953   -0.8171    3.3690 H         1 <0>         0.0829
     40 H13         5.9230   -2.5731    3.1379 H         1 <0>         0.1007
     41 H14        10.1569   -0.8240    2.4475 H         1 <0>         0.1411
     42 H15        11.7426   -0.8266    4.3360 H         1 <0>         0.1534
     43 H16         8.4869   -1.9355    6.9108 H         1 <0>         0.1623
     44 H17         9.7231   -1.9189    8.2741 H         1 <0>         0.3990
     45 H18        12.5658   -1.3217    9.1242 H         1 <0>         0.1415
     46 H19        10.6848   -3.6420   10.0806 H         1 <0>         0.0978
     47 H20        12.3566   -3.2534   10.7553 H         1 <0>         0.1063
     48 H21        11.5518   -0.9410   11.4179 H         1 <0>         0.1075
     49 H22         9.8799   -1.3296   10.7431 H         1 <0>         0.0979
     50 H23         3.8951    2.3014    0.8601 H         1 <0>         0.3936
     51 H24         3.6248   -1.2266    1.9361 H         1 <0>         0.4323
@<TRIPOS>BOND
     1    1    6 ar
     2    1    2 ar
     3    1   29 1
     4    2    3 ar
     5    2   30 1
     6    3    4 ar
     7    3   28 1
     8    4    5 ar
     9    4    8 1
    10    5    6 ar
    11    5   31 1
    12    6    7 1
    13    8    9 1
    14    8   32 1
    15    8   33 1
    16    9   10 1
    17    9   34 1
    18    9   51 1
    19   10   11 1
    20   10   15 1
    21   10   12 1
    22   12   13 1
    23   12   35 1
    24   12   36 1
    25   13   14 1
    26   13   37 1
    27   13   38 1
    28   14   15 1
    29   14   16 1
    30   15   39 1
    31   15   40 1
    32   16   21 ar
    33   16   17 ar
    34   17   18 ar
    35   17   41 1
    36   18   19 ar
    37   18   42 1
    38   19   20 ar
    39   19   22 1
    40   20   21 ar
    41   20   43 1
    42   22   23 2
    43   22   24 am
    44   24   25 1
    45   24   44 1
    46   25   27 1
    47   25   26 1
    48   25   45 1
    49   26   27 1
    50   26   46 1
    51   26   47 1
    52   27   48 1
    53   27   49 1
    54   28   50 1
@<TRIPOS>MOLECULE
ZINC19841761
   34    36     0     0     0
SMALL
USER_CHARGES
(R)-2,3-dihydro-1,4-benzodioxin-6-yl-(2-iodophenyl)methanamine
@<TRIPOS>ATOM
      1 C1         -5.7160    0.0671   -3.0482 C.ar      1 <0>        -0.0820
      2 C2         -5.2952   -0.9010   -3.9410 C.ar      1 <0>        -0.0898
      3 C3         -4.3559   -1.8375   -3.5531 C.ar      1 <0>        -0.0690
      4 C4         -3.8329   -1.8030   -2.2731 C.ar      1 <0>        -0.0790
      5 C5         -4.2578   -0.8379   -1.3787 C.ar      1 <0>        -0.0991
      6 C6         -5.1974    0.0987   -1.7674 C.ar      1 <0>        -0.1221
      7 C7         -3.6920   -0.8031    0.0176 C.3       1 <0>         0.1402
      8 H1         -3.5241   -1.8266    0.3840 H         1 <0>         0.1497
      9 C8         -2.3965   -0.0332    0.0157 C.ar      1 <0>        -0.1430
     10 C9         -2.4153    1.3492    0.0250 C.ar      1 <0>        -0.1095
     11 C10        -1.2294    2.0588    0.0190 C.ar      1 <0>        -0.1027
     12 C11        -0.0168    1.3855    0.0097 C.ar      1 <0>         0.0829
     13 C12         0.0021   -0.0041    0.0020 C.ar      1 <0>         0.0669
     14 C13        -1.1918   -0.7102    0.0041 C.ar      1 <0>        -0.0855
     15 O1          1.1807   -0.6848   -0.0066 O.3       1 <0>        -0.2995
     16 C14         2.3470    0.0535   -0.3870 C.3       1 <0>         0.0143
     17 C15         2.3345    1.3916    0.3645 C.3       1 <0>         0.0154
     18 O2          1.1429    2.0980    0.0024 O.3       1 <0>        -0.2978
     19 N1         -4.6499   -0.1475    0.9179 N.4       1 <0>        -0.6825
     20 I1         -2.4030   -3.2176   -1.6870 I         1 <0>        -0.0140
     21 H2         -6.4499    0.7991   -3.3517 H         1 <0>         0.1435
     22 H3         -5.7009   -0.9256   -4.9417 H         1 <0>         0.1453
     23 H4         -4.0275   -2.5940   -4.2504 H         1 <0>         0.1432
     24 H5         -5.5261    0.8553   -1.0702 H         1 <0>         0.1263
     25 H6         -3.3583    1.8754    0.0345 H         1 <0>         0.1279
     26 H7         -1.2469    3.1386    0.0268 H         1 <0>         0.1479
     27 H8         -1.1798   -1.7901   -0.0036 H         1 <0>         0.1488
     28 H9          3.2470   -0.5205   -0.1216 H         1 <0>         0.1353
     29 H10         2.3315    0.2298   -1.4727 H         1 <0>         0.0865
     30 H11         2.3475    1.2036    1.4482 H         1 <0>         0.0878
     31 H12         3.2215    1.9783    0.0835 H         1 <0>         0.1357
     32 H13        -4.2369   -0.1221    1.9371 H         1 <0>         0.4657
     33 H14        -5.5955   -0.7095    0.9193 H         1 <0>         0.4628
     34 H15        -4.8346    0.8800    0.5714 H         1 <0>         0.4490
@<TRIPOS>BOND
     1    1    6 ar
     2    1    2 ar
     3    1   21 1
     4    2    3 ar
     5    2   22 1
     6    3    4 ar
     7    3   23 1
     8    4    5 ar
     9    4   20 1
    10    5    6 ar
    11    5    7 1
    12    6   24 1
    13    7    8 1
    14    7    9 1
    15    7   19 1
    16    9   14 ar
    17    9   10 ar
    18   10   11 ar
    19   10   25 1
    20   11   12 ar
    21   11   26 1
    22   12   18 1
    23   12   13 ar
    24   13   14 ar
    25   13   15 1
    26   14   27 1
    27   15   16 1
    28   16   17 1
    29   16   28 1
    30   16   29 1
    31   17   18 1
    32   17   30 1
    33   17   31 1
    34   19   32 1
    35   19   33 1
    36   19   34 1
@<TRIPOS>MOLECULE
ZINC35495566
   33    35     0     0     0
SMALL
USER_CHARGES

@<TRIPOS>ATOM
      1 C1         -0.0178    1.4648    0.0101 C.3       1 <0>        -0.0523
      2 N1          0.0021   -0.0041    0.0020 N.4       1 <0>        -0.5099
      3 C2          0.6897   -0.4778   -1.2066 C.3       1 <0>         0.1951
      4 H1          0.2158   -0.0447   -2.0875 H         1 <0>         0.1659
      5 C3          0.6031   -1.9807   -1.2773 C.ar      1 <0>        -0.1763
      6 C4          0.7409   -2.7379   -0.1283 C.ar      1 <0>        -0.0764
      7 C5          0.6627   -4.1139   -0.1861 C.ar      1 <0>        -0.1270
      8 C6          0.4433   -4.7515   -1.4058 C.ar      1 <0>         0.1857
      9 C7          0.3061   -3.9798   -2.5526 C.ar      1 <0>        -0.1334
     10 C8          0.3798   -2.6064   -2.4914 C.ar      1 <0>        -0.0225
     11 C9          0.0824   -4.9474   -3.6919 C.3       1 <0>        -0.1196
     12 C10         0.1154   -6.3087   -3.0305 C.2       1 <0>         0.5274
     13 O1         -0.0235   -7.3807   -3.5807 O.2       1 <0>        -0.4753
     14 N2          0.3269   -6.1062   -1.7191 N.am      1 <0>        -0.6618
     15 C11         2.1367   -0.0597   -1.1578 C.2       1 <0>        -0.2343
     16 C12         2.9247    0.4051   -2.1576 C.2       1 <0>        -0.0781
     17 C13         4.2392    0.7308   -1.8791 C.2       1 <0>        -0.1242
     18 C14         4.7008    0.5752   -0.6133 C.2       1 <0>        -0.1309
     19 S1          3.2550   -0.0411    0.2336 S.3       1 <0>         0.1087
     20 Br1         6.4258    0.9269    0.0770 Br        1 <0>         0.0743
     21 H2          1.0047    1.8421    0.0024 H         1 <0>         0.1237
     22 H3         -0.5450    1.8259   -0.8730 H         1 <0>         0.1307
     23 H4         -0.5280    1.8163    0.9069 H         1 <0>         0.1335
     24 H5          0.4901   -0.3383    0.8195 H         1 <0>         0.4240
     25 H6          0.9111   -2.2492    0.8197 H         1 <0>         0.1258
     26 H7          0.7720   -4.6983    0.7155 H         1 <0>         0.1423
     27 H8          0.2676   -2.0182   -3.3902 H         1 <0>         0.1432
     28 H9         -0.8877   -4.7721   -4.1569 H         1 <0>         0.1338
     29 H10         0.8812   -4.8612   -4.4285 H         1 <0>         0.1335
     30 H11         0.3913   -6.8198   -1.0652 H         1 <0>         0.4215
     31 H12         2.5318    0.5192   -3.1571 H         1 <0>         0.1540
     32 H13         4.8886    1.1030   -2.6577 H         1 <0>         0.1587
     33 H14        -0.9445   -0.3533    0.0092 H         1 <0>         0.4399
@<TRIPOS>BOND
     1    1    2 1
     2    1   21 1
     3    1   22 1
     4    1   23 1
     5    2    3 1
     6    2   24 1
     7    2   33 1
     8    3    4 1
     9    3    5 1
    10    3   15 1
    11    5   10 ar
    12    5    6 ar
    13    6    7 ar
    14    6   25 1
    15    7    8 ar
    16    7   26 1
    17    8   14 1
    18    8    9 ar
    19    9   10 ar
    20    9   11 1
    21   10   27 1
    22   11   12 1
    23   11   28 1
    24   11   29 1
    25   12   13 2
    26   12   14 am
    27   14   30 1
    28   15   19 1
    29   15   16 2
    30   16   17 1
    31   16   31 1
    32   17   18 2
    33   17   32 1
    34   18   19 1
    35   18   20 1
@<TRIPOS>MOLECULE
ZINC43265391
   33    34     0     0     0
SMALL
USER_CHARGES

@<TRIPOS>ATOM
      1 C1          0.2427    1.5989    0.0536 C.3       1 <0>        -0.1914
      2 C2          0.1372    0.0736   -0.0024 C.3       1 <0>         0.0073
      3 H1          0.6671   -0.2953   -0.8806 H         1 <0>         0.1694
      4 C3          0.7603   -0.5274    1.2591 C.3       1 <0>         0.1625
      5 H2          0.6065   -1.6065    1.2616 H         1 <0>         0.1290
      6 C4          2.2376   -0.2305    1.2800 C.2       1 <0>        -0.2089
      7 C5          3.2683   -0.9976    0.8490 C.2       1 <0>        -0.0962
      8 C6          4.5587   -0.5161    0.9690 C.2       1 <0>        -0.1288
      9 C7          4.7544    0.7101    1.5147 C.2       1 <0>        -0.1526
     10 S1          3.0831    1.2262    1.8719 S.3       1 <0>         0.1675
     11 Br1         6.3761    1.6360    1.8127 Br        1 <0>         0.0663
     12 O1          0.1431    0.0444    2.4141 O.3       1 <0>        -0.2838
     13 C8         -0.9343   -0.6056    2.9224 C.ar      1 <0>         0.1692
     14 C9         -1.3449   -1.8090    2.3709 C.ar      1 <0>        -0.2700
     15 C10        -2.4420   -2.4709    2.8878 C.ar      1 <0>        -0.0057
     16 C11        -3.1405   -1.9405    3.9585 C.ar      1 <0>        -0.1729
     17 C12        -2.7464   -0.7424    4.5221 C.ar      1 <0>         0.2058
     18 C13        -1.6331   -0.0654    4.0112 C.ar      1 <0>        -0.0725
     19 C14        -1.2140    1.1741    4.5930 C.1       1 <0>         0.2318
     20 N1         -0.8815    2.1574    5.0546 N.1       1 <0>        -0.3612
     21 F1         -3.4309   -0.2281    5.5672 F         1 <0>        -0.1039
     22 N2         -1.2767   -0.3168   -0.0839 N.4       1 <0>        -0.6406
     23 H3          1.2918    1.8885    0.1141 H         1 <0>         0.1122
     24 H4         -0.2012    2.0271   -0.8451 H         1 <0>         0.0952
     25 H5         -0.2872    1.9678    0.9318 H         1 <0>         0.0911
     26 H6          3.0845   -1.9709    0.4185 H         1 <0>         0.1492
     27 H7          5.3980   -1.1073    0.6337 H         1 <0>         0.1546
     28 H8         -0.8061   -2.2301    1.5350 H         1 <0>         0.1445
     29 H9         -2.7569   -3.4081    2.4531 H         1 <0>         0.1590
     30 H10        -3.9972   -2.4652    4.3548 H         1 <0>         0.1630
     31 H11        -1.3463   -1.3227   -0.1208 H         1 <0>         0.4348
     32 H12        -1.7672    0.0247    0.7291 H         1 <0>         0.4319
     33 H13        -1.6876    0.0796   -0.9158 H         1 <0>         0.4441
@<TRIPOS>BOND
     1    1    2 1
     2    1   23 1
     3    1   24 1
     4    1   25 1
     5    2    3 1
     6    2    4 1
     7    2   22 1
     8    4    5 1
     9    4    6 1
    10    4   12 1
    11    6   10 1
    12    6    7 2
    13    7    8 1
    14    7   26 1
    15    8    9 2
    16    8   27 1
    17    9   10 1
    18    9   11 1
    19   12   13 1
    20   13   18 ar
    21   13   14 ar
    22   14   15 ar
    23   14   28 1
    24   15   16 ar
    25   15   29 1
    26   16   17 ar
    27   16   30 1
    28   17   18 ar
    29   17   21 1
    30   18   19 1
    31   19   20 3
    32   22   31 1
    33   22   32 1
    34   22   33 1
@<TRIPOS>MOLECULE
ZINC51547659
   34    35     0     0     0
SMALL
USER_CHARGES

@<TRIPOS>ATOM
      1 C1         -0.0091    1.5029    0.0114 C.3       1 <0>        -0.1267
      2 C2          0.0089   -0.0040    0.0029 C.ar      1 <0>        -0.0634
      3 C3         -1.1691   -0.7074   -0.1706 C.ar      1 <0>        -0.1021
      4 C4         -1.1554   -2.0884   -0.1789 C.ar      1 <0>        -0.1145
      5 C5          0.0419   -2.7702   -0.0134 C.ar      1 <0>         0.0649
      6 C6          1.2223   -2.0622    0.1600 C.ar      1 <0>        -0.1025
      7 C7          1.2037   -0.6807    0.1627 C.ar      1 <0>        -0.0681
      8 C8          2.4864    0.0890    0.3453 C.3       1 <0>        -0.1232
      9 O1          0.0580   -4.1291   -0.0207 O.3       1 <0>        -0.2500
     10 C9         -0.0443   -4.7609   -1.2171 C.ar      1 <0>         0.3535
     11 C10        -0.1404   -6.1463   -1.2573 C.ar      1 <0>        -0.2368
     12 C11        -0.2442   -6.7788   -2.4836 C.ar      1 <0>         0.0192
     13 C12        -0.2483   -5.9988   -3.6329 C.ar      1 <0>        -0.1874
     14 C13        -0.1493   -4.6257   -3.5178 C.ar      1 <0>         0.2140
     15 N1         -0.0570   -4.0515   -2.3333 N.ar      1 <0>        -0.5062
     16 Br1        -0.3872   -6.8075   -5.3366 Br        1 <0>         0.0052
     17 C14        -0.1311   -6.9496    0.0177 C.3       1 <0>         0.0625
     18 N2         -1.4671   -6.9154    0.6276 N.4       1 <0>        -0.6369
     19 H1          0.1270    1.8737   -1.0045 H         1 <0>         0.0796
     20 H2         -0.9652    1.8526    0.4008 H         1 <0>         0.0734
     21 H3          0.7979    1.8723    0.6442 H         1 <0>         0.0760
     22 H4         -2.1007   -0.1763   -0.2994 H         1 <0>         0.1346
     23 H5         -2.0757   -2.6373   -0.3137 H         1 <0>         0.1225
     24 H6          2.1553   -2.5905    0.2894 H         1 <0>         0.1306
     25 H7          2.6552    0.2672    1.4073 H         1 <0>         0.0786
     26 H8          3.3169   -0.4867   -0.0631 H         1 <0>         0.0708
     27 H9          2.4147    1.0435   -0.1763 H         1 <0>         0.0773
     28 H10        -0.3200   -7.8543   -2.5457 H         1 <0>         0.1651
     29 H11        -0.1520   -4.0143   -4.4080 H         1 <0>         0.1831
     30 H12         0.1404   -7.9814   -0.2049 H         1 <0>         0.1475
     31 H13         0.5953   -6.5240    0.7100 H         1 <0>         0.1478
     32 H14        -1.7184   -5.9602    0.8337 H         1 <0>         0.4358
     33 H15        -2.1395   -7.3094   -0.0132 H         1 <0>         0.4344
     34 H16        -1.4609   -7.4533    1.4813 H         1 <0>         0.4413
@<TRIPOS>BOND
     1    1    2 1
     2    1   19 1
     3    1   20 1
     4    1   21 1
     5    2    7 ar
     6    2    3 ar
     7    3    4 ar
     8    3   22 1
     9    4    5 ar
    10    4   23 1
    11    5    6 ar
    12    5    9 1
    13    6    7 ar
    14    6   24 1
    15    7    8 1
    16    8   25 1
    17    8   26 1
    18    8   27 1
    19    9   10 1
    20   10   15 ar
    21   10   11 ar
    22   11   12 ar
    23   11   17 1
    24   12   13 ar
    25   12   28 1
    26   13   14 ar
    27   13   16 1
    28   14   15 ar
    29   14   29 1
    30   17   18 1
    31   17   30 1
    32   17   31 1
    33   18   32 1
    34   18   33 1
    35   18   34 1
@<TRIPOS>MOLECULE
ZINC58088870
   48    50     0     0     0
SMALL
USER_CHARGES

@<TRIPOS>ATOM
      1 C1         -0.0187    1.5258    0.0104 C.3       1 <0>        -0.1661
      2 C2          0.0021   -0.0041    0.0020 C.3       1 <0>        -0.0965
      3 C3         -1.4333   -0.5336    0.0129 C.3       1 <0>        -0.0844
      4 H1         -2.0049   -0.1019   -0.8087 H         1 <0>         0.1317
      5 C4         -1.4417   -2.0426   -0.0717 C.ar      1 <0>        -0.1299
      6 C5         -0.9882   -2.9298   -1.0219 C.ar      1 <0>        -0.0244
      7 C6         -1.1365   -4.2911   -0.8217 C.ar      1 <0>        -0.1720
      8 C7         -1.7400   -4.7549    0.3330 C.ar      1 <0>        -0.0775
      9 C8         -2.1952   -3.8682    1.2866 C.ar      1 <0>        -0.1309
     10 C9         -2.0495   -2.4959    1.0921 C.ar      1 <0>         0.1883
     11 N1         -2.4211   -1.4164    1.8943 N.am      1 <0>        -0.5530
     12 C10        -2.0998   -0.2325    1.3384 C.2       1 <0>         0.5292
     13 O1         -2.3033    0.8665    1.8093 O.2       1 <0>        -0.4681
     14 C11        -3.0864   -1.5544    3.1923 C.3       1 <0>         0.0998
     15 C12        -2.0329   -1.6461    4.2981 C.3       1 <0>        -0.1721
     16 C13        -0.6419   -5.2656   -1.8594 C.3       1 <0>         0.1475
     17 H2         -0.5327   -4.7538   -2.8156 H         1 <0>         0.1542
     18 C14         0.6921   -5.8210   -1.4317 C.ar      1 <0>        -0.1488
     19 C15         0.7495   -6.8428   -0.5025 C.ar      1 <0>        -0.1144
     20 C16         1.9731   -7.3523   -0.1101 C.ar      1 <0>        -0.1082
     21 C17         3.1394   -6.8402   -0.6473 C.ar      1 <0>        -0.0504
     22 C18         3.0819   -5.8190   -1.5772 C.ar      1 <0>        -0.1092
     23 C19         1.8581   -5.3125   -1.9727 C.ar      1 <0>        -0.0790
     24 C20         4.4734   -7.3950   -0.2188 C.3       1 <0>        -0.1309
     25 N2         -1.6075   -6.3638   -1.9994 N.4       1 <0>        -0.6357
     26 H3          1.0039    1.9031    0.0027 H         1 <0>         0.0639
     27 H4         -0.5459    1.8868   -0.8726 H         1 <0>         0.0602
     28 H5         -0.5289    1.8773    0.9072 H         1 <0>         0.0718
     29 H6          0.5123   -0.3556   -0.8948 H         1 <0>         0.0797
     30 H7          0.5293   -0.3651    0.8851 H         1 <0>         0.0673
     31 H8         -0.5170   -2.5638   -1.9221 H         1 <0>         0.1401
     32 H9         -1.8560   -5.8173    0.4888 H         1 <0>         0.1250
     33 H10        -2.6658   -4.2382    2.1855 H         1 <0>         0.1380
     34 H11        -3.7232   -0.6875    3.3681 H         1 <0>         0.0976
     35 H12        -3.6949   -2.4587    3.1943 H         1 <0>         0.0886
     36 H13        -1.4244   -0.7418    4.2960 H         1 <0>         0.0642
     37 H14        -2.5279   -1.7488    5.2638 H         1 <0>         0.0804
     38 H15        -1.3961   -2.5130    4.1222 H         1 <0>         0.0592
     39 H16        -0.1617   -7.2429   -0.0828 H         1 <0>         0.1175
     40 H17         2.0180   -8.1501    0.6164 H         1 <0>         0.1344
     41 H18         3.9931   -5.4188   -1.9966 H         1 <0>         0.1364
     42 H19         1.8130   -4.5172   -2.7020 H         1 <0>         0.1341
     43 H20         4.7503   -8.2216   -0.8731 H         1 <0>         0.0824
     44 H21         5.2296   -6.6125   -0.2821 H         1 <0>         0.0761
     45 H22         4.4053   -7.7521    0.8088 H         1 <0>         0.0751
     46 H23        -2.5007   -5.9919   -2.2858 H         1 <0>         0.4402
     47 H24        -1.2764   -7.0162   -2.6942 H         1 <0>         0.4403
     48 H25        -1.7086   -6.8375   -1.1143 H         1 <0>         0.4284
@<TRIPOS>BOND
     1    1    2 1
     2    1   26 1
     3    1   27 1
     4    1   28 1
     5    2    3 1
     6    2   29 1
     7    2   30 1
     8    3    4 1
     9    3   12 1
    10    3    5 1
    11    5   10 ar
    12    5    6 ar
    13    6    7 ar
    14    6   31 1
    15    7    8 ar
    16    7   16 1
    17    8    9 ar
    18    8   32 1
    19    9   10 ar
    20    9   33 1
    21   10   11 1
    22   11   12 am
    23   11   14 1
    24   12   13 2
    25   14   15 1
    26   14   34 1
    27   14   35 1
    28   15   36 1
    29   15   37 1
    30   15   38 1
    31   16   17 1
    32   16   18 1
    33   16   25 1
    34   18   23 ar
    35   18   19 ar
    36   19   20 ar
    37   19   39 1
    38   20   21 ar
    39   20   40 1
    40   21   22 ar
    41   21   24 1
    42   22   23 ar
    43   22   41 1
    44   23   42 1
    45   24   43 1
    46   24   44 1
    47   24   45 1
    48   25   46 1
    49   25   47 1
    50   25   48 1
@<TRIPOS>MOLECULE
ZINC19482404
   51    53     0     0     0
SMALL
USER_CHARGES
[1-[4-(m-tolyl)piperazin-1-yl]cyclohexyl]methanamine
@<TRIPOS>ATOM
      1 C1         -2.5137    0.9757    0.0188 C.3       1 <0>        -0.1227
      2 C2         -1.2205    1.7494    0.0174 C.ar      1 <0>        -0.0561
      3 C3         -0.0126    1.0758    0.0080 C.ar      1 <0>        -0.1392
      4 C4          1.1762    1.7818    0.0004 C.ar      1 <0>        -0.0889
      5 C5          1.1611    3.1630    0.0080 C.ar      1 <0>        -0.1762
      6 C6         -0.0501    3.8425    0.0232 C.ar      1 <0>         0.1058
      7 C7         -1.2428    3.1300    0.0307 C.ar      1 <0>        -0.1388
      8 N1         -0.0691    5.2391    0.0304 N.pl3     1 <0>        -0.4879
      9 C8         -0.8504    5.7611   -1.0995 C.3       1 <0>         0.0570
     10 C9         -0.9132    7.2877   -1.0109 C.3       1 <0>         0.0499
     11 N2          0.4514    7.8330   -1.0214 N.3       1 <0>        -0.5418
     12 C10         1.2327    7.3110    0.1085 C.3       1 <0>         0.0368
     13 C11         1.2956    5.7844    0.0199 C.3       1 <0>         0.0514
     14 C12         0.4315    9.3018   -1.0139 C.3       1 <0>         0.0896
     15 C13        -0.1996    9.7966    0.2891 C.3       1 <0>        -0.1469
     16 C14        -0.2204   11.3264    0.2971 C.3       1 <0>        -0.1233
     17 C15        -1.0413   11.8315   -0.8912 C.3       1 <0>        -0.1289
     18 C16        -0.4102   11.3367   -2.1942 C.3       1 <0>        -0.1265
     19 C17        -0.3895    9.8069   -2.2021 C.3       1 <0>        -0.1237
     20 C18         1.8627    9.8319   -1.1207 C.3       1 <0>         0.0019
     21 N3          2.4687    9.3568   -2.3718 N.4       1 <0>        -0.6814
     22 H1         -2.2959   -0.1025    0.0071 H         1 <0>         0.0700
     23 H2         -3.1006    1.2410   -0.8729 H         1 <0>         0.0724
     24 H3         -3.0884    1.2239    0.9233 H         1 <0>         0.0737
     25 H4          0.0021   -0.0041    0.0020 H         1 <0>         0.1246
     26 H5          2.1177    1.2527   -0.0118 H         1 <0>         0.1246
     27 H6          2.0900    3.7138    0.0017 H         1 <0>         0.1228
     28 H7         -2.1863    3.6554    0.0425 H         1 <0>         0.1236
     29 H8         -0.3700    5.4672   -2.0444 H         1 <0>         0.0535
     30 H9         -1.8694    5.3485   -1.0624 H         1 <0>         0.0935
     31 H10        -1.4734    7.6822   -1.8715 H         1 <0>         0.0949
     32 H11        -1.4189    7.5804   -0.0789 H         1 <0>         0.0607
     33 H12         2.2517    7.7237    0.0714 H         1 <0>         0.0800
     34 H13         0.7523    7.6049    1.0534 H         1 <0>         0.0649
     35 H14         1.8551    5.3889    0.8805 H         1 <0>         0.0938
     36 H15         1.8007    5.4907   -0.9121 H         1 <0>         0.0541
     37 H16        -1.2286    9.4155    0.3659 H         1 <0>         0.0855
     38 H17         0.3906    9.4335    1.1434 H         1 <0>         0.0770
     39 H18        -0.6742   11.6820    1.2339 H         1 <0>         0.0766
     40 H19         0.8086   11.7075    0.2204 H         1 <0>         0.0627
     41 H20        -2.0703   11.4505   -0.8144 H         1 <0>         0.0711
     42 H21        -1.0562   12.9314   -0.8855 H         1 <0>         0.0739
     43 H22        -1.0004   11.6998   -3.0485 H         1 <0>         0.0809
     44 H23         0.6188   11.7177   -2.2711 H         1 <0>         0.0589
     45 H24         0.0642    9.4512   -3.1389 H         1 <0>         0.0680
     46 H25        -1.4185    9.4259   -2.1252 H         1 <0>         0.0927
     47 H26         1.8477   10.9318   -1.1150 H         1 <0>         0.1389
     48 H27         2.4529    9.4689   -0.2664 H         1 <0>         0.1295
     49 H28         3.4977    9.7379   -2.4486 H         1 <0>         0.4556
     50 H29         1.8785    9.7199   -3.2261 H         1 <0>         0.4514
     51 H30         2.4837    8.2569   -2.3774 H         1 <0>         0.4604
@<TRIPOS>BOND
     1    1    2 1
     2    1   22 1
     3    1   23 1
     4    1   24 1
     5    2    7 ar
     6    2    3 ar
     7    3    4 ar
     8    3   25 1
     9    4    5 ar
    10    4   26 1
    11    5    6 ar
    12    5   27 1
    13    6    7 ar
    14    6    8 1
    15    7   28 1
    16    8   13 1
    17    8    9 1
    18    9   10 1
    19    9   29 1
    20    9   30 1
    21   10   11 1
    22   10   31 1
    23   10   32 1
    24   11   12 1
    25   11   14 1
    26   12   13 1
    27   12   33 1
    28   12   34 1
    29   13   35 1
    30   13   36 1
    31   14   19 1
    32   14   15 1
    33   14   20 1
    34   15   16 1
    35   15   37 1
    36   15   38 1
    37   16   17 1
    38   16   39 1
    39   16   40 1
    40   17   18 1
    41   17   41 1
    42   17   42 1
    43   18   19 1
    44   18   43 1
    45   18   44 1
    46   19   45 1
    47   19   46 1
    48   20   21 1
    49   20   47 1
    50   20   48 1
    51   21   49 1
    52   21   50 1
    53   21   51 1
@<TRIPOS>MOLECULE
ZINC36143697
   50    52     0     0     0
SMALL
USER_CHARGES

@<TRIPOS>ATOM
      1 C1         -0.0187    1.5258    0.0104 C.3       1 <0>        -0.1448
      2 C2          0.0021   -0.0041    0.0020 C.3       1 <0>        -0.0556
      3 C3         -1.4333   -0.5336    0.0129 C.3       1 <0>        -0.1463
      4 C4          0.7074   -0.4901   -1.2379 C.ar      1 <0>        -0.0998
      5 C5          0.2218   -0.1510   -2.4875 C.ar      1 <0>        -0.0813
      6 C6          0.8671   -0.5987   -3.6219 C.ar      1 <0>        -0.1475
      7 C7          2.0066   -1.3898   -3.5131 C.ar      1 <0>         0.1254
      8 C8          2.4925   -1.7240   -2.2614 C.ar      1 <0>        -0.1551
      9 C9          1.8421   -1.2693   -1.1262 C.ar      1 <0>        -0.0823
     10 C10         3.7308   -2.5684   -2.0988 C.3       1 <0>        -0.0795
     11 C11         4.0261   -3.3085   -3.4058 C.3       1 <0>        -0.1483
     12 C12         3.9481   -2.3026   -4.5591 C.3       1 <0>         0.1192
     13 O1          2.6102   -1.8167   -4.6528 O.3       1 <0>        -0.3089
     14 C13         4.3410   -2.9923   -5.8669 C.3       1 <0>        -0.1027
     15 C14         4.3200   -1.9682   -7.0042 C.3       1 <0>         0.0579
     16 N1          5.2569   -0.8790   -6.7003 N.3       1 <0>        -0.5303
     17 C15         4.8686   -0.1705   -5.4740 C.3       1 <0>         0.0506
     18 C16         4.9049   -1.1399   -4.2900 C.3       1 <0>        -0.1379
     19 C17         5.3687    0.0505   -7.8324 C.3       1 <0>         0.0236
     20 C18         6.5253    1.0206   -7.5834 C.3       1 <0>        -0.0108
     21 N2          6.6370    1.9501   -8.7155 N.4       1 <0>        -0.6352
     22 H1          1.0039    1.9031    0.0027 H         1 <0>         0.0542
     23 H2         -0.5459    1.8868   -0.8726 H         1 <0>         0.0559
     24 H3         -0.5289    1.8773    0.9072 H         1 <0>         0.0606
     25 H4          0.5293   -0.3651    0.8851 H         1 <0>         0.0776
     26 H5         -1.9605   -0.1726   -0.8702 H         1 <0>         0.0564
     27 H6         -1.4185   -1.6235    0.0069 H         1 <0>         0.0564
     28 H7         -1.9435   -0.1821    0.9097 H         1 <0>         0.0607
     29 H8         -0.6620    0.4634   -2.5754 H         1 <0>         0.1279
     30 H9          0.4863   -0.3346   -4.5975 H         1 <0>         0.1255
     31 H10         2.2215   -1.5292   -0.1491 H         1 <0>         0.1245
     32 H11         4.5758   -1.9281   -1.8458 H         1 <0>         0.0783
     33 H12         3.5735   -3.2927   -1.2995 H         1 <0>         0.0844
     34 H13         5.0251   -3.7426   -3.3642 H         1 <0>         0.0867
     35 H14         3.2887   -4.0970   -3.5559 H         1 <0>         0.0803
     36 H15         5.3434   -3.4097   -5.7713 H         1 <0>         0.0951
     37 H16         3.6325   -3.7917   -6.0838 H         1 <0>         0.0868
     38 H17         4.6157   -2.4527   -7.9348 H         1 <0>         0.0844
     39 H18         3.3137   -1.5629   -7.1096 H         1 <0>         0.0524
     40 H19         5.5632    0.6498   -5.2932 H         1 <0>         0.0749
     41 H20         3.8598    0.2263   -5.5878 H         1 <0>         0.0495
     42 H21         4.5980   -0.6185   -3.3834 H         1 <0>         0.0822
     43 H22         5.9174   -1.5235   -4.1647 H         1 <0>         0.0891
     44 H23         5.5565   -0.5118   -8.7470 H         1 <0>         0.0989
     45 H24         4.4397    0.6114   -7.9350 H         1 <0>         0.0581
     46 H25         6.3374    1.5830   -6.6688 H         1 <0>         0.1325
     47 H26         7.4543    0.4598   -7.4808 H         1 <0>         0.1441
     48 H27         6.8109    1.4296   -9.5622 H         1 <0>         0.4364
     49 H28         5.7771    2.4693   -8.8105 H         1 <0>         0.4348
     50 H29         7.3998    2.5899   -8.5513 H         1 <0>         0.4414
@<TRIPOS>BOND
     1    1    2 1
     2    1   22 1
     3    1   23 1
     4    1   24 1
     5    2    3 1
     6    2    4 1
     7    2   25 1
     8    3   26 1
     9    3   27 1
    10    3   28 1
    11    4    9 ar
    12    4    5 ar
    13    5    6 ar
    14    5   29 1
    15    6    7 ar
    16    6   30 1
    17    7   13 1
    18    7    8 ar
    19    8    9 ar
    20    8   10 1
    21    9   31 1
    22   10   11 1
    23   10   32 1
    24   10   33 1
    25   11   12 1
    26   11   34 1
    27   11   35 1
    28   12   18 1
    29   12   13 1
    30   12   14 1
    31   14   15 1
    32   14   36 1
    33   14   37 1
    34   15   16 1
    35   15   38 1
    36   15   39 1
    37   16   17 1
    38   16   19 1
    39   17   18 1
    40   17   40 1
    41   17   41 1
    42   18   42 1
    43   18   43 1
    44   19   20 1
    45   19   44 1
    46   19   45 1
    47   20   21 1
    48   20   46 1
    49   20   47 1
    50   21   48 1
    51   21   49 1
    52   21   50 1
@<TRIPOS>MOLECULE
ZINC43093741
   40    42     0     0     0
SMALL
USER_CHARGES

@<TRIPOS>ATOM
      1 C1         -2.1378   -1.1552    0.4698 C.3       1 <0>        -0.0920
      2 C2         -0.6888   -1.0136    0.0807 C.2       1 <0>         0.3052
      3 N1         -0.1998   -1.3025   -1.0899 N.2       1 <0>        -0.4711
      4 C3          1.1360   -1.0588   -1.0994 C.ar      1 <0>         0.0627
      5 C4          2.1326   -1.1896   -2.0701 C.ar      1 <0>        -0.0478
      6 C5          3.4227   -0.8547   -1.7706 C.ar      1 <0>        -0.1177
      7 C6          3.7572   -0.3845   -0.5086 C.ar      1 <0>        -0.0771
      8 C7          2.7906   -0.2473    0.4647 C.ar      1 <0>        -0.1541
      9 C8          1.4741   -0.5823    0.1785 C.ar      1 <0>         0.0104
     10 N2          0.2975   -0.5596    0.9003 N.pl3     1 <0>        -0.5120
     11 C9          0.1407   -0.1294    2.2919 C.3       1 <0>         0.1618
     12 H1          0.3023   -0.9790    2.9552 H         1 <0>         0.1448
     13 C10        -1.2513    0.4105    2.4970 C.ar      1 <0>        -0.1070
     14 C11        -1.7428    1.3922    1.6570 C.ar      1 <0>        -0.1344
     15 C12        -3.0196    1.8871    1.8447 C.ar      1 <0>        -0.0835
     16 C13        -3.8059    1.4005    2.8726 C.ar      1 <0>        -0.0832
     17 C14        -3.3154    0.4190    3.7128 C.ar      1 <0>        -0.0681
     18 C15        -2.0394   -0.0804    3.5221 C.ar      1 <0>        -0.0733
     19 Br1        -1.3703   -1.4284    4.6670 Br        1 <0>        -0.0135
     20 C16         1.1633    0.9645    2.6058 C.3       1 <0>         0.0166
     21 H2          2.1691    0.5480    2.5514 H         1 <0>         0.1640
     22 C17         0.9121    1.5086    4.0136 C.3       1 <0>        -0.1848
     23 N3          1.0308    2.0537    1.6290 N.4       1 <0>        -0.6418
     24 H3         -2.6472   -0.2023    0.3267 H         1 <0>         0.0936
     25 H4         -2.6085   -1.9160   -0.1527 H         1 <0>         0.1027
     26 H5         -2.2056   -1.4497    1.5171 H         1 <0>         0.0830
     27 H6          1.8835   -1.5553   -3.0553 H         1 <0>         0.1401
     28 H7          4.1901   -0.9572   -2.5236 H         1 <0>         0.1410
     29 H8          4.7818   -0.1246   -0.2872 H         1 <0>         0.1405
     30 H9          3.0562    0.1194    1.4452 H         1 <0>         0.1210
     31 H10        -1.1288    1.7729    0.8541 H         1 <0>         0.1181
     32 H11        -3.4031    2.6544    1.1885 H         1 <0>         0.1464
     33 H12        -4.8034    1.7877    3.0191 H         1 <0>         0.1497
     34 H13        -3.9297    0.0389    4.5157 H         1 <0>         0.1508
     35 H14         1.0880    0.7197    4.7448 H         1 <0>         0.1153
     36 H15         1.5885    2.3411    4.2074 H         1 <0>         0.0984
     37 H16        -0.1192    1.8528    4.0914 H         1 <0>         0.0898
     38 H17         1.8058    2.6919    1.7297 H         1 <0>         0.4407
     39 H18         1.0299    1.6702    0.6957 H         1 <0>         0.4330
     40 H19         0.1656    2.5470    1.7907 H         1 <0>         0.4316
@<TRIPOS>BOND
     1    1    2 1
     2    1   24 1
     3    1   25 1
     4    1   26 1
     5    2   10 1
     6    2    3 2
     7    3    4 1
     8    4    9 ar
     9    4    5 ar
    10    5    6 ar
    11    5   27 1
    12    6    7 ar
    13    6   28 1
    14    7    8 ar
    15    7   29 1
    16    8    9 ar
    17    8   30 1
    18    9   10 1
    19   10   11 1
    20   11   12 1
    21   11   13 1
    22   11   20 1
    23   13   18 ar
    24   13   14 ar
    25   14   15 ar
    26   14   31 1
    27   15   16 ar
    28   15   32 1
    29   16   17 ar
    30   16   33 1
    31   17   18 ar
    32   17   34 1
    33   18   19 1
    34   20   21 1
    35   20   22 1
    36   20   23 1
    37   22   35 1
    38   22   36 1
    39   22   37 1
    40   23   38 1
    41   23   39 1
    42   23   40 1
@<TRIPOS>MOLECULE
ZINC50892101
   37    39     0     0     0
SMALL
USER_CHARGES

@<TRIPOS>ATOM
      1 C1         -0.0173    1.4248    0.0099 C.3       1 <0>         0.0192
      2 O1          0.0021   -0.0041    0.0020 O.3       1 <0>        -0.2951
      3 C2         -1.2005   -0.6376    0.0101 C.ar      1 <0>         0.1700
      4 C3         -2.3747    0.1008    0.0195 C.ar      1 <0>        -0.1890
      5 C4         -3.5958   -0.5453    0.0272 C.ar      1 <0>        -0.0363
      6 C5         -3.6488   -1.9271    0.0260 C.ar      1 <0>        -0.1731
      7 C6         -2.4805   -2.6661    0.0172 C.ar      1 <0>        -0.0729
      8 C7         -1.2558   -2.0246    0.0032 C.ar      1 <0>        -0.0650
      9 Cl1         0.2112   -2.9527   -0.0152 Cl        1 <0>        -0.0285
     10 C8         -4.9825   -2.6286    0.0350 C.3       1 <0>         0.1550
     11 H1         -5.7561   -1.9427   -0.3101 H         1 <0>         0.1564
     12 C9         -5.3020   -3.0824    1.4361 C.ar      1 <0>        -0.1782
     13 C10        -4.7267   -4.2343    1.9405 C.ar      1 <0>        -0.0799
     14 C11        -5.0124   -4.6517    3.2237 C.ar      1 <0>        -0.1273
     15 C12        -5.8841   -3.9159    4.0230 C.ar      1 <0>         0.1428
     16 C13        -6.4614   -2.7649    3.5027 C.ar      1 <0>        -0.1631
     17 C14        -6.1675   -2.3449    2.2242 C.ar      1 <0>        -0.0331
     18 C15        -7.3689   -2.1981    4.5772 C.3       1 <0>        -0.1162
     19 C16        -7.4966   -3.3932    5.5513 C.3       1 <0>         0.0480
     20 O2         -6.2906   -4.1358    5.3035 O.3       1 <0>        -0.2943
     21 N1         -4.9284   -3.7946   -0.8570 N.4       1 <0>        -0.6367
     22 H2          1.0053    1.8021    0.0021 H         1 <0>         0.1147
     23 H3         -0.5445    1.7859   -0.8732 H         1 <0>         0.0650
     24 H4         -0.5275    1.7763    0.9067 H         1 <0>         0.0649
     25 H5         -2.3343    1.1800    0.0211 H         1 <0>         0.1513
     26 H6         -4.5101    0.0295    0.0345 H         1 <0>         0.1434
     27 H7         -2.5245   -3.7452    0.0170 H         1 <0>         0.1341
     28 H8         -4.0503   -4.8102    1.3264 H         1 <0>         0.1264
     29 H9         -4.5584   -5.5522    3.6102 H         1 <0>         0.1426
     30 H10        -6.6155   -1.4422    1.8358 H         1 <0>         0.1368
     31 H11        -6.9043   -1.3432    5.0684 H         1 <0>         0.1003
     32 H12        -8.3403   -1.9273    4.1636 H         1 <0>         0.1015
     33 H13        -7.5318   -3.0474    6.5844 H         1 <0>         0.1179
     34 H14        -8.3751   -3.9930    5.3136 H         1 <0>         0.0873
     35 H15        -5.8214   -4.2643   -0.8510 H         1 <0>         0.4415
     36 H16        -4.7145   -3.4907   -1.7951 H         1 <0>         0.4409
     37 H17        -4.2123   -4.4295   -0.5375 H         1 <0>         0.4288
@<TRIPOS>BOND
     1    1    2 1
     2    1   22 1
     3    1   23 1
     4    1   24 1
     5    2    3 1
     6    3    8 ar
     7    3    4 ar
     8    4    5 ar
     9    4   25 1
    10    5    6 ar
    11    5   26 1
    12    6    7 ar
    13    6   10 1
    14    7    8 ar
    15    7   27 1
    16    8    9 1
    17   10   11 1
    18   10   12 1
    19   10   21 1
    20   12   17 ar
    21   12   13 ar
    22   13   14 ar
    23   13   28 1
    24   14   15 ar
    25   14   29 1
    26   15   20 1
    27   15   16 ar
    28   16   17 ar
    29   16   18 1
    30   17   30 1
    31   18   19 1
    32   18   31 1
    33   18   32 1
    34   19   20 1
    35   19   33 1
    36   19   34 1
    37   21   35 1
    38   21   36 1
    39   21   37 1
@<TRIPOS>MOLECULE
ZINC61824338
   54    56     0     0     0
SMALL
USER_CHARGES

@<TRIPOS>ATOM
      1 C1         -0.0572    1.5282   -0.2930 C.3       1 <0>        -0.1758
      2 C2         -0.0375   -0.0015   -0.3119 C.3       1 <0>        -0.0863
      3 H1          0.2556   -0.3489   -1.3026 H         1 <0>         0.1001
      4 C3         -1.4323   -0.5337    0.0232 C.3       1 <0>        -0.1023
      5 H2         -2.1469   -0.1704   -0.7154 H         1 <0>         0.1152
      6 C4         -1.8437   -0.0461    1.4138 C.3       1 <0>        -0.1283
      7 C5         -0.8407   -0.5561    2.4505 C.3       1 <0>        -0.1178
      8 C6          0.5541   -0.0239    2.1155 C.3       1 <0>        -0.1420
      9 C7          0.9655   -0.5115    0.7248 C.3       1 <0>         0.0091
     10 H3          0.9796   -1.6013    0.7114 H         1 <0>         0.1749
     11 N1          2.3047   -0.0005    0.4031 N.4       1 <0>        -0.6352
     12 C8         -1.4129   -2.0405    0.0046 C.2       1 <0>         0.5229
     13 O1         -0.3602   -2.6320   -0.1085 O.2       1 <0>        -0.5552
     14 N2         -2.5654   -2.7307    0.1136 N.am      1 <0>        -0.5951
     15 C9         -3.8582   -2.0325    0.1253 C.3       1 <0>         0.0944
     16 C10        -4.6406   -2.4645    1.3694 C.3       1 <0>        -0.1286
     17 C11        -4.7506   -3.9907    1.3942 C.3       1 <0>        -0.0539
     18 C12        -5.5591   -4.4233    2.6191 C.3       1 <0>        -0.1089
     19 C13        -6.9598   -3.8121    2.5477 C.3       1 <0>        -0.1220
     20 C14        -7.6624   -4.2942    1.2769 C.3       1 <0>        -0.1221
     21 C15        -6.8541   -3.8612    0.0521 C.3       1 <0>        -0.1215
     22 C16        -5.4532   -4.4721    0.1233 C.3       1 <0>        -0.1146
     23 C17        -3.3502   -4.6038    1.4662 C.3       1 <0>        -0.1240
     24 C18        -2.5537   -4.1963    0.2171 C.3       1 <0>         0.1073
     25 H4          0.9365    1.9074   -0.5317 H         1 <0>         0.0569
     26 H5         -0.7718    1.8915   -1.0315 H         1 <0>         0.0855
     27 H6         -0.3503    1.8756    0.6977 H         1 <0>         0.0798
     28 H7         -1.8578    1.0437    1.4273 H         1 <0>         0.0884
     29 H8         -2.8374   -0.4253    1.6525 H         1 <0>         0.0889
     30 H9         -1.1338   -0.2087    3.4412 H         1 <0>         0.0890
     31 H10        -0.8266   -1.6459    2.4371 H         1 <0>         0.0739
     32 H11         0.5401    1.0660    2.1289 H         1 <0>         0.0885
     33 H12         1.2687   -0.3872    2.8540 H         1 <0>         0.0881
     34 H13         2.2917    1.0083    0.4156 H         1 <0>         0.4254
     35 H14         2.9662   -0.3368    1.0868 H         1 <0>         0.4351
     36 H15        -3.6917   -0.9557    0.1540 H         1 <0>         0.0882
     37 H16        -4.4224   -2.2934   -0.7701 H         1 <0>         0.0805
     38 H17        -4.1195   -2.1228    2.2637 H         1 <0>         0.0677
     39 H18        -5.6391   -2.0283    1.3407 H         1 <0>         0.0880
     40 H19        -5.6375   -5.5104    2.6372 H         1 <0>         0.0658
     41 H20        -5.0586   -4.0800    3.5245 H         1 <0>         0.0612
     42 H21        -7.5356   -4.1203    3.4204 H         1 <0>         0.0636
     43 H22        -6.8815   -2.7251    2.5294 H         1 <0>         0.0630
     44 H23        -7.7404   -5.3813    1.2950 H         1 <0>         0.0628
     45 H24        -8.6604   -3.8590    1.2261 H         1 <0>         0.0630
     46 H25        -7.3546   -4.2044   -0.8534 H         1 <0>         0.0631
     47 H26        -6.7760   -2.7741    0.0341 H         1 <0>         0.0625
     48 H27        -4.8775   -4.1634   -0.7493 H         1 <0>         0.0628
     49 H28        -5.5313   -5.5591    0.1409 H         1 <0>         0.0662
     50 H29        -2.8406   -4.2429    2.3596 H         1 <0>         0.0669
     51 H30        -3.4304   -5.6901    1.5065 H         1 <0>         0.0801
     52 H31        -3.0144   -4.6289   -0.6710 H         1 <0>         0.0759
     53 H32        -1.5259   -4.5481    0.3063 H         1 <0>         0.0929
     54 H33         2.5761   -0.3221   -0.5140 H         1 <0>         0.4360
@<TRIPOS>BOND
     1    1    2 1
     2    1   25 1
     3    1   26 1
     4    1   27 1
     5    2    3 1
     6    2    9 1
     7    2    4 1
     8    4    5 1
     9    4    6 1
    10    4   12 1
    11    6    7 1
    12    6   28 1
    13    6   29 1
    14    7    8 1
    15    7   30 1
    16    7   31 1
    17    8    9 1
    18    8   32 1
    19    8   33 1
    20    9   10 1
    21    9   11 1
    22   11   34 1
    23   11   35 1
    24   11   54 1
    25   12   13 2
    26   12   14 am
    27   14   24 1
    28   14   15 1
    29   15   16 1
    30   15   36 1
    31   15   37 1
    32   16   17 1
    33   16   38 1
    34   16   39 1
    35   17   22 1
    36   17   18 1
    37   17   23 1
    38   18   19 1
    39   18   40 1
    40   18   41 1
    41   19   20 1
    42   19   42 1
    43   19   43 1
    44   20   21 1
    45   20   44 1
    46   20   45 1
    47   21   22 1
    48   21   46 1
    49   21   47 1
    50   22   48 1
    51   22   49 1
    52   23   24 1
    53   23   50 1
    54   23   51 1
    55   24   52 1
    56   24   53 1
@<TRIPOS>MOLECULE
ZINC15255694
   48    49     0     0     0
SMALL
USER_CHARGES
(2R)-2-(azepan-1-yl)-N-[2-oxo-2-[(2,3,4-trifluorophenyl)amino]ethyl]propanamide
@<TRIPOS>ATOM
      1 C1          6.1075    7.7123   -0.7500 C.3       1 <0>        -0.1810
      2 C2          5.3076    8.0251    0.5162 C.3       1 <0>         0.0120
      3 H1          5.7711    7.5311    1.3701 H         1 <0>         0.1615
      4 C3          3.8947    7.5267    0.3536 C.2       1 <0>         0.5081
      5 O1          3.0198    8.2887    0.0002 O.2       1 <0>        -0.5203
      6 N1          3.6033    6.2343    0.6010 N.am      1 <0>        -0.6939
      7 C4          2.2298    5.7498    0.4430 C.3       1 <0>         0.0981
      8 C5          2.1732    4.2817    0.7785 C.2       1 <0>         0.5157
      9 O2          3.1811    3.6975    1.1163 O.2       1 <0>        -0.5091
     10 N2          1.0027    3.6178    0.7031 N.am      1 <0>        -0.6527
     11 C6          0.9285    2.2796    1.1127 C.ar      1 <0>         0.1279
     12 C7          1.8879    1.7615    1.9717 C.ar      1 <0>        -0.0907
     13 C8          1.8143    0.4422    2.3752 C.ar      1 <0>        -0.1086
     14 C9          0.7848   -0.3656    1.9233 C.ar      1 <0>         0.0893
     15 C10        -0.1755    0.1473    1.0649 C.ar      1 <0>         0.0607
     16 C11        -0.1053    1.4693    0.6586 C.ar      1 <0>         0.0680
     17 F1         -1.0372    1.9690   -0.1823 F         1 <0>        -0.1144
     18 F2         -1.1792   -0.6426    0.6245 F         1 <0>        -0.1070
     19 F3          0.7161   -1.6555    2.3190 F         1 <0>        -0.1125
     20 C12         6.6652   10.0290    0.7346 C.3       1 <0>         0.0033
     21 C13         6.7247   11.4501    1.2248 C.3       1 <0>        -0.1430
     22 C14         7.0357   11.4341    2.7361 C.3       1 <0>        -0.1320
     23 C15         5.8573   11.1225    3.5377 C.3       1 <0>        -0.1325
     24 C16         5.2843    9.7270    3.2131 C.3       1 <0>        -0.1384
     25 C17         4.4932    9.8210    1.9368 C.3       1 <0>        -0.0005
     26 H2          7.1503    7.9914   -0.5992 H         1 <0>         0.1001
     27 H3          6.0444    6.6456   -0.9654 H         1 <0>         0.1094
     28 H4          5.6977    8.2769   -1.5874 H         1 <0>         0.0900
     29 H5          4.3030    5.6249    0.8837 H         1 <0>         0.4223
     30 H6          1.9079    5.8997   -0.5875 H         1 <0>         0.1191
     31 H7          1.5706    6.3013    1.1134 H         1 <0>         0.1197
     32 H8          0.2117    4.0663    0.3654 H         1 <0>         0.4247
     33 H9          2.6920    2.3900    2.3251 H         1 <0>         0.1781
     34 H10         2.5611    0.0404    3.0438 H         1 <0>         0.1628
     35 H11         7.2951    9.4101    1.3736 H         1 <0>         0.1307
     36 H12         7.0556    9.9914   -0.2824 H         1 <0>         0.1266
     37 H13         5.7647   11.9370    1.0535 H         1 <0>         0.0873
     38 H14         7.5109   11.9877    0.6948 H         1 <0>         0.1128
     39 H15         7.4144   12.4131    3.0297 H         1 <0>         0.0859
     40 H16         7.8042   10.6862    2.9313 H         1 <0>         0.0736
     41 H17         5.0905   11.8731    3.3461 H         1 <0>         0.0748
     42 H18         6.1296   11.1565    4.5926 H         1 <0>         0.0854
     43 H19         4.6334    9.4006    4.0242 H         1 <0>         0.1096
     44 H20         6.0987    9.0135    3.0874 H         1 <0>         0.0837
     45 H21         4.1193   10.8391    1.8293 H         1 <0>         0.1293
     46 H22         3.6432    9.1415    1.9994 H         1 <0>         0.1217
     47 N3          5.2650    9.4854    0.6919 N.4       1 <0>        -0.3916
     48 H23         4.7803    9.9020   -0.1117 H         1 <0>         0.4359
@<TRIPOS>BOND
     1    1    2 1
     2    1   26 1
     3    1   27 1
     4    1   28 1
     5    2    3 1
     6    2    4 1
     7    2   47 1
     8    4    5 2
     9    4    6 am
    10    6    7 1
    11    6   29 1
    12    7    8 1
    13    7   30 1
    14    7   31 1
    15    8    9 2
    16    8   10 am
    17   10   11 1
    18   10   32 1
    19   11   16 ar
    20   11   12 ar
    21   12   13 ar
    22   12   33 1
    23   13   14 ar
    24   13   34 1
    25   14   15 ar
    26   14   19 1
    27   15   16 ar
    28   15   18 1
    29   16   17 1
    30   20   21 1
    31   20   35 1
    32   20   36 1
    33   20   47 1
    34   21   22 1
    35   21   37 1
    36   21   38 1
    37   22   23 1
    38   22   39 1
    39   22   40 1
    40   23   24 1
    41   23   41 1
    42   23   42 1
    43   24   25 1
    44   24   43 1
    45   24   44 1
    46   25   45 1
    47   25   46 1
    48   25   47 1
    49   47   48 1
@<TRIPOS>MOLECULE
ZINC33635898
   41    43     0     0     0
SMALL
USER_CHARGES
N-[(1S)-1-(4-bromophenyl)ethyl]-2-[(2R)-pyrrolidin-2-yl]oxazole-4-carboxamide
@<TRIPOS>ATOM
      1 C1         -1.6616    2.5889   -1.3966 C.3       1 <0>        -0.1613
      2 C2         -1.3320    2.1136    0.0198 C.3       1 <0>         0.1855
      3 H1         -2.1232    1.4566    0.4102 H         1 <0>         0.1040
      4 C3         -0.0167    1.3782    0.0096 C.ar      1 <0>        -0.0813
      5 C4          1.1707    2.0860    0.0021 C.ar      1 <0>        -0.1104
      6 C5          2.3773    1.4120   -0.0130 C.ar      1 <0>        -0.0853
      7 C6          2.3966    0.0289   -0.0206 C.ar      1 <0>        -0.0881
      8 C7          1.2082   -0.6790   -0.0131 C.ar      1 <0>        -0.0828
      9 C8          0.0021   -0.0041    0.0020 C.ar      1 <0>        -0.0989
     10 Br1         4.0470   -0.8940   -0.0407 Br        1 <0>        -0.0397
     11 N1         -1.2376    3.2706    0.9135 N.am      1 <0>        -0.7160
     12 C9         -2.3506    3.7762    1.4812 C.2       1 <0>         0.5987
     13 O1         -3.4331    3.2720    1.2515 O.2       1 <0>        -0.5226
     14 C10        -2.2556    4.9405    2.3805 C.2       1 <0>        -0.0588
     15 C11        -3.2888    5.5577    3.0158 C.2       1 <0>         0.0601
     16 O2         -2.7627    6.5646    3.7314 O.3       1 <0>        -0.1999
     17 C12        -1.4369    6.5713    3.5339 C.2       1 <0>         0.1205
     18 N2         -1.1192    5.6039    2.7268 N.2       1 <0>        -0.4064
     19 C13        -0.4679    7.5473    4.1500 C.3       1 <0>         0.1476
     20 H2          0.5352    7.1116    4.0319 H         1 <0>         0.1800
     21 C14        -0.6294    8.9469    3.5060 C.3       1 <0>        -0.1375
     22 C15        -0.0798    9.8715    4.6239 C.3       1 <0>        -0.1421
     23 C16        -0.5415    9.1665    5.9166 C.3       1 <0>        -0.0027
     24 N3         -0.7822    7.7512    5.5802 N.4       1 <0>        -0.5453
     25 H3         -2.6217    3.1257   -1.3891 H         1 <0>         0.0684
     26 H4         -1.7324    1.7202   -2.0677 H         1 <0>         0.0765
     27 H5         -0.8676    3.2625   -1.7513 H         1 <0>         0.0633
     28 H6          1.1556    3.1659    0.0080 H         1 <0>         0.1283
     29 H7          3.3049    1.9650   -0.0192 H         1 <0>         0.1361
     30 H8          1.2227   -1.7589   -0.0187 H         1 <0>         0.1387
     31 H9         -0.9258   -0.5567    0.0083 H         1 <0>         0.1368
     32 H10        -0.2584    3.7267    1.1212 H         1 <0>         0.4280
     33 H11        -4.3328    5.2876    2.9574 H         1 <0>         0.2477
     34 H12        -0.0421    8.9931    2.5771 H         1 <0>         0.1270
     35 H13        -1.6906    9.1254    3.2781 H         1 <0>         0.1040
     36 H14         1.0156    9.9323    4.5439 H         1 <0>         0.1078
     37 H15        -0.5119   10.8770    4.5135 H         1 <0>         0.1203
     38 H16         0.2434    9.2539    6.6823 H         1 <0>         0.1416
     39 H17        -1.4648    9.6394    6.2825 H         1 <0>         0.1376
     40 H18        -1.8364    7.4963    5.7639 H         1 <0>         0.4577
     41 H19        -0.1366    7.1052    6.1932 H         1 <0>         0.4632
@<TRIPOS>BOND
     1    1    2 1
     2    1   25 1
     3    1   26 1
     4    1   27 1
     5    2    3 1
     6    2    4 1
     7    2   11 1
     8    4    9 ar
     9    4    5 ar
    10    5    6 ar
    11    5   28 1
    12    6    7 ar
    13    6   29 1
    14    7    8 ar
    15    7   10 1
    16    8    9 ar
    17    8   30 1
    18    9   31 1
    19   11   12 am
    20   11   32 1
    21   12   13 2
    22   12   14 1
    23   14   18 1
    24   14   15 2
    25   15   16 1
    26   15   33 1
    27   16   17 1
    28   17   18 2
    29   17   19 1
    30   19   20 1
    31   19   24 1
    32   19   21 1
    33   21   22 1
    34   21   34 1
    35   21   35 1
    36   22   23 1
    37   22   36 1
    38   22   37 1
    39   23   24 1
    40   23   38 1
    41   23   39 1
    42   24   40 1
    43   24   41 1
@<TRIPOS>MOLECULE
ZINC06771640
   47    50     0     0     0
SMALL
USER_CHARGES

@<TRIPOS>ATOM
      1 C1         -0.0184    1.5028    0.0103 C.3       1 <0>        -0.1273
      2 C2          0.0021   -0.0041    0.0020 C.ar      1 <0>        -0.0636
      3 C3          0.0057   -0.6888   -1.1991 C.ar      1 <0>        -0.0913
      4 C4          0.0245   -2.0707   -1.2067 C.ar      1 <0>        -0.0967
      5 C5          0.0400   -2.7685   -0.0132 C.ar      1 <0>        -0.1223
      6 C6          0.0373   -2.0840    1.1875 C.ar      1 <0>        -0.1325
      7 C7          0.0229   -0.7015    1.1951 C.ar      1 <0>        -0.0864
      8 C8          0.0538   -2.8445    2.4885 C.3       1 <0>         0.1776
      9 H1          0.4004   -2.1932    3.2908 H         1 <0>         0.1538
     10 C9         -1.3344   -3.3456    2.8031 C.2       1 <0>        -0.0622
     11 C10        -2.4989   -2.6888    2.6990 C.2       1 <0>        -0.1117
     12 C11        -3.5195   -3.5763    3.1014 C.2       1 <0>        -0.1946
     13 C12        -2.9318   -4.7451    3.4380 C.2       1 <0>         0.0362
     14 N1         -1.5935   -4.6114    3.2611 N.pl3     1 <0>        -0.4643
     15 C13        -0.5408   -5.6060    3.5025 C.3       1 <0>         0.0879
     16 C14         0.8041   -4.8701    3.5543 C.3       1 <0>        -0.0207
     17 N2          0.9479   -4.0090    2.3721 N.4       1 <0>        -0.3912
     18 C15         2.3389   -3.5477    2.2700 C.3       1 <0>         0.0863
     19 C16         3.2432   -4.7286    2.0279 C.2       1 <0>        -0.0790
     20 C17         3.5975   -5.2134    0.8173 C.2       1 <0>        -0.1419
     21 C18         4.4448   -6.3094    1.0430 C.2       1 <0>        -0.1221
     22 C19         4.5661   -6.4395    2.3968 C.2       1 <0>        -0.0254
     23 O1          3.8328   -5.4670    2.9770 O.3       1 <0>        -0.1575
     24 C20         5.3584   -7.4556    3.0973 C.2       1 <0>         0.6000
     25 O2          5.9848   -8.2833    2.4621 O.2       1 <0>        -0.4972
     26 N3          5.3927   -7.4727    4.4445 N.am      1 <0>        -0.8367
     27 H2          1.0042    1.8801    0.0026 H         1 <0>         0.0808
     28 H3         -0.5455    1.8639   -0.8728 H         1 <0>         0.0766
     29 H4         -0.5286    1.8543    0.9071 H         1 <0>         0.0746
     30 H5         -0.0064   -0.1437   -2.1314 H         1 <0>         0.1365
     31 H6          0.0266   -2.6056   -2.1449 H         1 <0>         0.1363
     32 H7          0.0540   -3.8484   -0.0191 H         1 <0>         0.1132
     33 H8          0.0246   -0.1666    2.1333 H         1 <0>         0.1358
     34 H9         -2.6310   -1.6690    2.3688 H         1 <0>         0.1471
     35 H10        -4.5772   -3.3603    3.1349 H         1 <0>         0.1522
     36 H11        -3.4393   -5.6321    3.7872 H         1 <0>         0.1773
     37 H12        -0.7215   -6.1107    4.4516 H         1 <0>         0.1347
     38 H13        -0.5306   -6.3356    2.6927 H         1 <0>         0.1068
     39 H14         0.8478   -4.2586    4.4555 H         1 <0>         0.1452
     40 H15         1.6150   -5.5983    3.5723 H         1 <0>         0.1491
     41 H16         2.4288   -2.8453    1.4413 H         1 <0>         0.1656
     42 H17         2.6269   -3.0537    3.1979 H         1 <0>         0.1523
     43 H18         3.2868   -4.8298   -0.1433 H         1 <0>         0.1723
     44 H19         4.9103   -6.9298    0.2915 H         1 <0>         0.1776
     45 H20         4.8934   -6.8130    4.9508 H         1 <0>         0.4063
     46 H21         5.9167   -8.1448    4.9079 H         1 <0>         0.4191
     47 H22         0.7086   -4.5337    1.5442 H         1 <0>         0.4236
@<TRIPOS>BOND
     1    1    2 1
     2    1   27 1
     3    1   28 1
     4    1   29 1
     5    2    7 ar
     6    2    3 ar
     7    3    4 ar
     8    3   30 1
     9    4    5 ar
    10    4   31 1
    11    5    6 ar
    12    5   32 1
    13    6    7 ar
    14    6    8 1
    15    7   33 1
    16    8    9 1
    17    8   17 1
    18    8   10 1
    19   10   14 1
    20   10   11 2
    21   11   12 1
    22   11   34 1
    23   12   13 2
    24   12   35 1
    25   13   14 1
    26   13   36 1
    27   14   15 1
    28   15   16 1
    29   15   37 1
    30   15   38 1
    31   16   17 1
    32   16   39 1
    33   16   40 1
    34   17   18 1
    35   17   47 1
    36   18   19 1
    37   18   41 1
    38   18   42 1
    39   19   23 1
    40   19   20 2
    41   20   21 1
    42   20   43 1
    43   21   22 2
    44   21   44 1
    45   22   23 1
    46   22   24 1
    47   24   25 2
    48   24   26 am
    49   26   45 1
    50   26   46 1
@<TRIPOS>MOLECULE
ZINC62776686
   40    42     0     0     0
SMALL
USER_CHARGES

@<TRIPOS>ATOM
      1 C1         -0.0187    1.5258    0.0104 C.3       1 <0>        -0.1858
      2 C2          0.0021   -0.0041    0.0020 C.3       1 <0>        -0.0110
      3 N1         -1.3761   -0.5125    0.0124 N.4       1 <0>        -0.5059
      4 C3         -1.3562   -1.9814    0.0044 C.3       1 <0>         0.1774
      5 H1         -0.7538   -2.3412    0.8385 H         1 <0>         0.1682
      6 C4         -0.7613   -2.4686   -1.2917 C.2       1 <0>         0.0283
      7 C5         -0.1352   -3.7028   -1.4940 C.2       1 <0>        -0.2446
      8 C6          0.2610   -3.7619   -2.7865 C.2       1 <0>         0.0878
      9 N2         -0.1015   -2.6060   -3.3810 N.pl3     1 <0>        -0.4437
     10 N3         -0.7463   -1.8124   -2.4235 N.2       1 <0>        -0.2914
     11 H2          0.0538   -2.3681   -4.3085 H         1 <0>         0.4529
     12 C7         -2.7634   -2.5036    0.1388 C.ar      1 <0>        -0.1063
     13 C8         -3.8307   -1.7229   -0.2688 C.ar      1 <0>        -0.1159
     14 C9         -5.1217   -2.2062   -0.1441 C.ar      1 <0>         0.1022
     15 C10        -5.3437   -3.4686    0.3883 C.ar      1 <0>         0.1046
     16 C11        -4.2744   -4.2474    0.7958 C.ar      1 <0>        -0.0757
     17 C12        -2.9837   -3.7638    0.6640 C.ar      1 <0>        -0.0561
     18 Br1        -1.5184   -4.8266    1.2107 Br        1 <0>        -0.0047
     19 O1         -6.6205   -3.9358    0.5058 O.3       1 <0>        -0.3105
     20 C13        -7.4432   -3.2708    1.4666 C.3       1 <0>         0.0587
     21 C14        -8.0737   -2.0241    0.8662 C.3       1 <0>        -0.1942
     22 C15        -7.0391   -0.9723    0.4975 C.3       1 <0>         0.0593
     23 O2         -6.1830   -1.4467   -0.5437 O.3       1 <0>        -0.3131
     24 H3          1.0039    1.9031    0.0027 H         1 <0>         0.1090
     25 H4         -0.5459    1.8868   -0.8726 H         1 <0>         0.0817
     26 H5         -0.5289    1.8773    0.9072 H         1 <0>         0.0820
     27 H6          0.5123   -0.3556   -0.8948 H         1 <0>         0.1326
     28 H7          0.5293   -0.3651    0.8851 H         1 <0>         0.1346
     29 H8         -1.8484   -0.1871    0.8426 H         1 <0>         0.4328
     30 H9          0.0074   -4.4725   -0.7499 H         1 <0>         0.1635
     31 H10         0.7755   -4.5863   -3.2577 H         1 <0>         0.1943
     32 H11        -3.6571   -0.7406   -0.6829 H         1 <0>         0.1397
     33 H12        -4.4459   -5.2297    1.2106 H         1 <0>         0.1617
     34 H13        -8.2311   -3.9487    1.7949 H         1 <0>         0.1182
     35 H14        -6.8344   -2.9870    2.3251 H         1 <0>         0.0637
     36 H15        -8.6267   -2.3048   -0.0301 H         1 <0>         0.0919
     37 H16        -8.7692   -1.5971    1.5888 H         1 <0>         0.1029
     38 H17        -7.5493   -0.0703    0.1595 H         1 <0>         0.1166
     39 H18        -6.4387   -0.7363    1.3760 H         1 <0>         0.0622
     40 H19        -1.8641   -0.1783   -0.8050 H         1 <0>         0.4322
@<TRIPOS>BOND
     1    1    2 1
     2    1   24 1
     3    1   25 1
     4    1   26 1
     5    2    3 1
     6    2   27 1
     7    2   28 1
     8    3    4 1
     9    3   29 1
    10    3   40 1
    11    4    5 1
    12    4   12 1
    13    4    6 1
    14    6   10 2
    15    6    7 1
    16    7   30 1
    17    7    8 2
    18    8   31 1
    19    8    9 1
    20    9   10 1
    21    9   11 1
    22   12   17 ar
    23   12   13 ar
    24   13   14 ar
    25   13   32 1
    26   14   23 1
    27   14   15 ar
    28   15   16 ar
    29   15   19 1
    30   16   17 ar
    31   16   33 1
    32   17   18 1
    33   19   20 1
    34   20   21 1
    35   20   34 1
    36   20   35 1
    37   21   22 1
    38   21   36 1
    39   21   37 1
    40   22   23 1
    41   22   38 1
    42   22   39 1
@<TRIPOS>MOLECULE
ZINC66346733
   42    44     0     0     0
SMALL
USER_CHARGES

@<TRIPOS>ATOM
      1 C1         -0.0167    1.3782    0.0096 C.ar      1 <0>        -0.0883
      2 C2          1.1706    2.0858    0.0021 C.ar      1 <0>        -0.1025
      3 C3          2.3780    1.4104   -0.0130 C.ar      1 <0>        -0.0294
      4 C4          2.3961    0.0270   -0.0206 C.ar      1 <0>        -0.1048
      5 C5          1.2082   -0.6795   -0.0130 C.ar      1 <0>        -0.1000
      6 C6          0.0021   -0.0041    0.0020 C.ar      1 <0>        -0.0893
      7 C7         -1.2928   -0.7750    0.0107 C.3       1 <0>         0.2660
      8 H1         -2.0954   -0.1329    0.3736 H         1 <0>         0.1084
      9 C8         -1.6121   -1.2364   -1.3879 C.2       1 <0>        -0.1262
     10 C9         -2.5227   -0.5444   -2.1642 C.2       1 <0>        -0.1468
     11 C10        -2.7873   -0.9861   -3.4181 C.2       1 <0>        -0.1638
     12 S1         -1.7327   -2.4219   -3.5340 S.3       1 <0>         0.0456
     13 C11        -1.0064   -2.3330   -1.9055 C.2       1 <0>        -0.1661
     14 N1         -1.1624   -1.9387    0.8910 N.am      1 <0>        -0.7315
     15 C12        -2.2583   -2.4804    1.4586 C.2       1 <0>         0.7129
     16 O1         -3.3551   -2.0033    1.2400 O.2       1 <0>        -0.5726
     17 N2         -2.1383   -3.5510    2.2685 N.am      1 <0>        -0.7493
     18 C13        -3.3295   -4.1398    2.8855 C.3       1 <0>         0.1232
     19 C14        -2.9188   -5.3332    3.7504 C.3       1 <0>         0.0824
     20 N3         -4.1099   -5.9220    4.3674 N.pl3     1 <0>        -0.4083
     21 C15        -4.6555   -5.5751    5.5739 C.2       1 <0>         0.0277
     22 C16        -5.7346   -6.3604    5.7538 C.2       1 <0>         0.0064
     23 N4         -5.8450   -7.1648    4.6862 N.pl3     1 <0>        -0.4743
     24 C17        -4.8782   -6.9044    3.8493 C.cat     1 <0>         0.2934
     25 Cl1         3.8696    2.2984   -0.0231 Cl        1 <0>        -0.0591
     26 H2         -0.9592    1.9053    0.0259 H         1 <0>         0.1362
     27 H3          1.1558    3.1656    0.0076 H         1 <0>         0.1396
     28 H4          3.3383   -0.5007   -0.0327 H         1 <0>         0.1375
     29 H5          1.2222   -1.7594   -0.0193 H         1 <0>         0.1264
     30 H6         -3.0162    0.3349   -1.7773 H         1 <0>         0.1358
     31 H7         -3.4614   -0.5760   -4.1555 H         1 <0>         0.1886
     32 H8         -0.2751   -2.9846   -1.4505 H         1 <0>         0.1776
     33 H9         -0.2874   -2.3193    1.0654 H         1 <0>         0.3983
     34 H10        -1.2633   -3.9316    2.4429 H         1 <0>         0.4018
     35 H11        -3.8234   -3.3932    3.5073 H         1 <0>         0.0836
     36 H12        -4.0145   -4.4745    2.1064 H         1 <0>         0.0815
     37 H13        -2.4249   -6.0798    3.1286 H         1 <0>         0.1290
     38 H14        -2.2338   -4.9986    4.5295 H         1 <0>         0.1318
     39 H15        -4.2904   -4.8175    6.2515 H         1 <0>         0.2247
     40 H16        -6.3954   -6.3451    6.6079 H         1 <0>         0.2256
     41 H17        -4.7175   -7.3951    2.9007 H         1 <0>         0.2615
     42 H18        -6.5366   -7.8323    4.5552 H         1 <0>         0.4668
@<TRIPOS>BOND
     1    1    6 ar
     2    1    2 ar
     3    1   26 1
     4    2    3 ar
     5    2   27 1
     6    3    4 ar
     7    3   25 1
     8    4    5 ar
     9    4   28 1
    10    5    6 ar
    11    5   29 1
    12    6    7 1
    13    7    8 1
    14    7    9 1
    15    7   14 1
    16    9   13 2
    17    9   10 1
    18   10   11 2
    19   10   30 1
    20   11   12 1
    21   11   31 1
    22   12   13 1
    23   13   32 1
    24   14   15 am
    25   14   33 1
    26   15   16 2
    27   15   17 am
    28   17   18 1
    29   17   34 1
    30   18   19 1
    31   18   35 1
    32   18   36 1
    33   19   20 1
    34   19   37 1
    35   19   38 1
    36   20   24 1
    37   20   21 1
    38   21   22 2
    39   21   39 1
    40   22   23 1
    41   22   40 1
    42   23   24 2
    43   23   42 1
    44   24   41 1
@<TRIPOS>MOLECULE
ZINC12795871
   58    59     0     0     0
SMALL
USER_CHARGES
3-(4,6-dimethyl-2-methylsulfanyl-pyrimidin-5-yl)-N-(2,2,6,6-tetramethyl-4-piperidyl)propanamide
@<TRIPOS>ATOM
      1 C1          2.2002    9.1833   -4.4025 C.3       1 <0>        -0.1108
      2 C2          0.9136    9.9100   -4.1065 C.ar      1 <0>         0.2003
      3 C3         -0.2416    9.2009   -3.8162 C.ar      1 <0>        -0.2115
      4 C4         -1.4054    9.9076   -3.5558 C.ar      1 <0>         0.1981
      5 N1         -1.3769   11.2296   -3.5814 N.ar      1 <0>        -0.5291
      6 C5         -0.2553   11.8778   -3.8622 C.ar      1 <0>         0.3037
      7 N2          0.8729   11.2318   -4.1211 N.ar      1 <0>        -0.5050
      8 S1         -0.2642   13.6395   -3.8924 S.3       1 <0>         0.0125
      9 C6         -1.9991   13.9521   -3.4817 C.3       1 <0>        -0.1458
     10 C7         -2.6863    9.1784   -3.2420 C.3       1 <0>        -0.1111
     11 C8         -0.2339    7.6941   -3.7903 C.3       1 <0>        -0.0531
     12 C9          0.1053    7.2101   -2.3791 C.3       1 <0>        -0.1387
     13 C10         0.1130    5.7033   -2.3531 C.2       1 <0>         0.5209
     14 O1         -0.1290    5.0782   -3.3639 O.2       1 <0>        -0.5258
     15 N3          0.3888    5.0505   -1.2068 N.am      1 <0>        -0.7335
     16 C11         0.3963    3.5825   -1.1815 C.3       1 <0>         0.1382
     17 C12         1.2982    3.1041   -0.0422 C.3       1 <0>        -0.1369
     18 C13         1.3204    1.5766   -0.0021 C.3       1 <0>         0.0676
     19 C14        -1.0418    1.5510   -0.8515 C.3       1 <0>         0.0656
     20 C15        -1.0215    3.0759   -0.9179 C.3       1 <0>        -0.1394
     21 C16        -0.9441    0.9754   -2.2694 C.3       1 <0>        -0.1736
     22 C17        -2.4153    1.1295   -0.2823 C.3       1 <0>        -0.1836
     23 C18         2.0349    1.1563    1.3012 C.3       1 <0>        -0.1842
     24 C19         2.1514    1.0406   -1.1717 C.3       1 <0>        -0.1760
     25 H1          2.2704    8.9901   -5.4730 H         1 <0>         0.0908
     26 H2          3.0446    9.7967   -4.0879 H         1 <0>         0.0870
     27 H3          2.2163    8.2376   -3.8608 H         1 <0>         0.0796
     28 H4         -2.1790   15.0269   -3.4583 H         1 <0>         0.1098
     29 H5         -2.6392   13.4929   -4.2350 H         1 <0>         0.0912
     30 H6         -2.2238   13.5247   -2.5045 H         1 <0>         0.0905
     31 H7         -2.7604    9.0206   -2.1661 H         1 <0>         0.0851
     32 H8         -3.5350    9.7722   -3.5814 H         1 <0>         0.0854
     33 H9         -2.6901    8.2148   -3.7516 H         1 <0>         0.0847
     34 H10         0.5134    7.3225   -4.4913 H         1 <0>         0.0883
     35 H11        -1.2174    7.3208   -4.0758 H         1 <0>         0.0888
     36 H12        -0.6421    7.5817   -1.6780 H         1 <0>         0.0990
     37 H13         1.0887    7.5834   -2.0935 H         1 <0>         0.0999
     38 H14         0.5823    5.5504   -0.3984 H         1 <0>         0.4071
     39 H15         0.7604    3.2139   -2.1362 H         1 <0>         0.1074
     40 H16         0.9190    3.4877    0.9064 H         1 <0>         0.0952
     41 H17         2.3111    3.4786   -0.1997 H         1 <0>         0.1175
     42 H18        -1.3819    3.4856    0.0288 H         1 <0>         0.0907
     43 H19        -1.6815    3.4135   -1.7204 H         1 <0>         0.1149
     44 H20        -1.0617   -0.1076   -2.2308 H         1 <0>         0.0821
     45 H21        -1.7304    1.4043   -2.8907 H         1 <0>         0.1064
     46 H22         0.0292    1.2202   -2.6947 H         1 <0>         0.0822
     47 H23        -2.5245    1.5197    0.7296 H         1 <0>         0.0805
     48 H24        -3.2086    1.5299   -0.9136 H         1 <0>         0.1057
     49 H25        -2.4816    0.0418   -0.2615 H         1 <0>         0.0832
     50 H26         2.0942    0.0689    1.3485 H         1 <0>         0.0842
     51 H27         3.0407    1.5760    1.3157 H         1 <0>         0.1064
     52 H28         1.4739    1.5273    2.1590 H         1 <0>         0.0816
     53 H29         1.6605    1.2925   -2.1117 H         1 <0>         0.0833
     54 H30         3.1441    1.4903   -1.1483 H         1 <0>         0.1064
     55 H31         2.2411   -0.0424   -1.0874 H         1 <0>         0.0844
     56 N4         -0.0272    0.9468    0.0527 N.4       1 <0>        -0.5093
     57 H32        -0.3746    1.0215    1.0160 H         1 <0>         0.4291
     58 H33         0.0738   -0.0436   -0.1988 H         1 <0>         0.4323
@<TRIPOS>BOND
     1    1    2 1
     2    1   25 1
     3    1   26 1
     4    1   27 1
     5    2    7 ar
     6    2    3 ar
     7    3    4 ar
     8    3   11 1
     9    4    5 ar
    10    4   10 1
    11    5    6 ar
    12    6    7 ar
    13    6    8 1
    14    8    9 1
    15    9   28 1
    16    9   29 1
    17    9   30 1
    18   10   31 1
    19   10   32 1
    20   10   33 1
    21   11   12 1
    22   11   34 1
    23   11   35 1
    24   12   13 1
    25   12   36 1
    26   12   37 1
    27   13   14 2
    28   13   15 am
    29   15   16 1
    30   15   38 1
    31   16   20 1
    32   16   17 1
    33   16   39 1
    34   17   18 1
    35   17   40 1
    36   17   41 1
    37   18   23 1
    38   18   24 1
    39   18   56 1
    40   19   20 1
    41   19   21 1
    42   19   22 1
    43   19   56 1
    44   20   42 1
    45   20   43 1
    46   21   44 1
    47   21   45 1
    48   21   46 1
    49   22   47 1
    50   22   48 1
    51   22   49 1
    52   23   50 1
    53   23   51 1
    54   23   52 1
    55   24   53 1
    56   24   54 1
    57   24   55 1
    58   56   57 1
    59   56   58 1
@<TRIPOS>MOLECULE
ZINC33280305
   50    52     0     0     0
SMALL
USER_CHARGES
1-(2,4-dimethylphenyl)-3-[(2-thiomorpholino-4-pyridyl)methyl]urea
@<TRIPOS>ATOM
      1 C1         10.1849    6.4510   -3.9978 C.3       1 <0>        -0.1190
      2 C2          8.9679    5.6085   -3.7146 C.ar      1 <0>        -0.0954
      3 C3          8.2763    5.7721   -2.5281 C.ar      1 <0>        -0.1035
      4 C4          7.1610    5.0014   -2.2655 C.ar      1 <0>        -0.1249
      5 C5          6.7339    4.0612   -3.1943 C.ar      1 <0>         0.1551
      6 C6          7.4335    3.8958   -4.3822 C.ar      1 <0>        -0.1138
      7 C7          8.5453    4.6735   -4.6413 C.ar      1 <0>        -0.0997
      8 C8          6.9769    2.8728   -5.3902 C.3       1 <0>        -0.1141
      9 N1          5.6043    3.2783   -2.9309 N.am      1 <0>        -0.6865
     10 C9          5.2256    3.0484   -1.6580 C.2       1 <0>         0.7098
     11 O1          5.9206    3.4340   -0.7379 O.2       1 <0>        -0.5630
     12 N2          4.0765    2.3911   -1.4051 N.am      1 <0>        -0.7568
     13 C10         3.6648    2.1413   -0.0215 C.3       1 <0>         0.1639
     14 C11         2.3553    1.3954   -0.0139 C.ar      1 <0>         0.0399
     15 C12         1.1477    2.0811    0.0017 C.ar      1 <0>        -0.1370
     16 C13        -0.0343    1.3685    0.0088 C.ar      1 <0>         0.1514
     17 N3         -0.0292    0.0488    0.0009 N.ar      1 <0>        -0.5067
     18 C14         1.1009   -0.6409   -0.0139 C.ar      1 <0>         0.3667
     19 C15         2.3292    0.0127   -0.0218 C.ar      1 <0>        -0.1377
     20 N4          1.0598   -2.0302   -0.0222 N.pl3     1 <0>        -0.4823
     21 C16         1.8393   -2.5717   -1.1377 C.3       1 <0>         0.0488
     22 C17         2.1646   -4.0471   -0.8768 C.3       1 <0>        -0.0972
     23 S1          0.5986   -4.9665   -0.7588 S.3       1 <0>        -0.2190
     24 C18        -0.3564   -3.9804    0.4357 C.3       1 <0>        -0.0915
     25 C19        -0.3224   -2.5146   -0.0123 C.3       1 <0>         0.0191
     26 H1         10.3646    7.1315   -3.1524 H         1 <0>         0.0668
     27 H2         10.0191    7.0387   -4.9127 H         1 <0>         0.0710
     28 H3         11.0592    5.7977   -4.1350 H         1 <0>         0.0709
     29 H4          8.6091    6.5031   -1.8061 H         1 <0>         0.1257
     30 H5          6.6216    5.1293   -1.3386 H         1 <0>         0.1442
     31 H6          9.0874    4.5482   -5.5669 H         1 <0>         0.1269
     32 H7          7.6510    2.8882   -6.2593 H         1 <0>         0.0735
     33 H8          5.9534    3.1103   -5.7158 H         1 <0>         0.0649
     34 H9          6.9930    1.8733   -4.9312 H         1 <0>         0.0663
     35 H10         5.0254    2.8505   -3.7627 H         1 <0>         0.4268
     36 H11         3.4478    2.0422   -2.2375 H         1 <0>         0.4178
     37 H12         4.4326    1.5393    0.4865 H         1 <0>         0.0999
     38 H13         3.5437    3.1001    0.5038 H         1 <0>         0.1024
     39 H14         1.1336    3.1610    0.0078 H         1 <0>         0.1861
     40 H15        -0.9757    1.8978    0.0163 H         1 <0>         0.2113
     41 H16         3.2497   -0.5521   -0.0335 H         1 <0>         0.1844
     42 H17         1.2572   -2.4867   -2.0672 H         1 <0>         0.0884
     43 H18         2.7767   -2.0052   -1.2391 H         1 <0>         0.1142
     44 H19         2.7713   -4.4409   -1.7056 H         1 <0>         0.1346
     45 H20         2.7267   -4.1378    0.0644 H         1 <0>         0.1062
     46 H21        -1.3948   -4.3422    0.4627 H         1 <0>         0.1341
     47 H22         0.0925   -4.0795    1.4350 H         1 <0>         0.1068
     48 H23        -0.9187   -1.9075    0.6848 H         1 <0>         0.0989
     49 H24        -0.7465   -2.4338   -1.0240 H         1 <0>         0.0941
     50 H25        -0.9797   -0.5049    0.0066 H         1 <0>         0.4771
@<TRIPOS>BOND
     1    1    2 1
     2    1   26 1
     3    1   27 1
     4    1   28 1
     5    2    7 ar
     6    2    3 ar
     7    3    4 ar
     8    3   29 1
     9    4    5 ar
    10    4   30 1
    11    5    6 ar
    12    5    9 1
    13    6    7 ar
    14    6    8 1
    15    7   31 1
    16    8   32 1
    17    8   33 1
    18    8   34 1
    19    9   10 am
    20    9   35 1
    21   10   11 2
    22   10   12 am
    23   12   13 1
    24   12   36 1
    25   13   14 1
    26   13   37 1
    27   13   38 1
    28   14   19 ar
    29   14   15 ar
    30   15   16 ar
    31   15   39 1
    32   16   17 ar
    33   16   40 1
    34   17   18 ar
    35   17   50 1
    36   18   19 ar
    37   18   20 1
    38   19   41 1
    39   20   25 1
    40   20   21 1
    41   21   22 1
    42   21   42 1
    43   21   43 1
    44   22   23 1
    45   22   44 1
    46   22   45 1
    47   23   24 1
    48   24   25 1
    49   24   46 1
    50   24   47 1
    51   25   48 1
    52   25   49 1
@<TRIPOS>MOLECULE
ZINC41642042
   57    58     0     0     0
SMALL
USER_CHARGES

@<TRIPOS>ATOM
      1 C1         -7.3620   -8.3705    4.1959 C.3       1 <0>        -0.1212
      2 C2         -6.0411   -8.2537    3.4799 C.ar      1 <0>        -0.0853
      3 C3         -5.2059   -7.1830    3.7431 C.ar      1 <0>        -0.0962
      4 C4         -3.9950   -7.0729    3.0889 C.ar      1 <0>        -0.1330
      5 C5         -3.6156   -8.0394    2.1656 C.ar      1 <0>         0.1212
      6 C6         -4.4566   -9.1136    1.9041 C.ar      1 <0>        -0.1107
      7 C7         -5.6643   -9.2201    2.5656 C.ar      1 <0>        -0.0680
      8 C8         -6.5751  -10.3878    2.2864 C.3       1 <0>        -0.1183
      9 N1         -2.3911   -7.9309    1.5014 N.am      1 <0>        -0.6317
     10 C9         -2.2811   -8.3354    0.2205 C.2       1 <0>         0.5051
     11 O1         -3.2628   -8.7192   -0.3812 O.2       1 <0>        -0.5007
     12 C10        -0.9511   -8.3113   -0.4586 C.2       1 <0>         0.5158
     13 O2          0.0306   -7.9275    0.1430 O.2       1 <0>        -0.4840
     14 N2         -0.8411   -8.7157   -1.7395 N.am      1 <0>        -0.7254
     15 C11         0.4635   -8.6921   -2.4057 C.3       1 <0>         0.0906
     16 C12         0.3386   -9.3223   -3.7943 C.3       1 <0>         0.0175
     17 H1          1.2632   -9.1643   -4.3495 H         1 <0>         0.1606
     18 C13         0.0795  -10.8234   -3.6516 C.3       1 <0>        -0.1095
     19 C14        -1.2007  -11.0455   -2.8438 C.3       1 <0>        -0.1545
     20 C15        -1.4597  -12.5467   -2.7012 C.3       1 <0>        -0.1156
     21 C16        -0.2806  -13.2013   -1.9786 C.3       1 <0>        -0.1263
     22 C17         0.9996  -12.9792   -2.7865 C.3       1 <0>        -0.1208
     23 C18         1.2586  -11.4781   -2.9291 C.3       1 <0>        -0.1137
     24 N3         -0.7787   -8.6989   -4.5162 N.4       1 <0>        -0.3908
     25 C19        -0.5703   -7.2462   -4.5807 C.3       1 <0>        -0.0562
     26 C20        -0.8469   -9.2448   -5.8783 C.3       1 <0>        -0.0525
     27 H2         -7.2259   -8.9324    5.1200 H         1 <0>         0.0752
     28 H3         -7.7386   -7.3744    4.4285 H         1 <0>         0.0701
     29 H4         -8.0769   -8.8892    3.5572 H         1 <0>         0.0715
     30 H5         -5.5015   -6.4321    4.4609 H         1 <0>         0.1327
     31 H6         -3.3437   -6.2363    3.2944 H         1 <0>         0.1296
     32 H7         -4.1647   -9.8667    1.1870 H         1 <0>         0.1312
     33 H8         -7.2488  -10.1355    1.4676 H         1 <0>         0.0742
     34 H9         -5.9776  -11.2568    2.0106 H         1 <0>         0.0667
     35 H10        -7.1575  -10.6159    3.1790 H         1 <0>         0.0742
     36 H11        -1.6202   -7.5644    1.9622 H         1 <0>         0.4246
     37 H12        -1.6257   -9.0225   -2.2204 H         1 <0>         0.4085
     38 H13         0.8027   -7.6609   -2.5038 H         1 <0>         0.1036
     39 H14         1.1839   -9.2568   -1.8139 H         1 <0>         0.1264
     40 H15        -0.0330  -11.2682   -4.6404 H         1 <0>         0.1036
     41 H16        -1.0881  -10.6007   -1.8550 H         1 <0>         0.0967
     42 H17        -2.0406  -10.5791   -3.3585 H         1 <0>         0.0552
     43 H18        -2.3718  -12.7049   -2.1256 H         1 <0>         0.0744
     44 H19        -1.5723  -12.9915   -3.6899 H         1 <0>         0.0681
     45 H20        -0.1681  -12.7565   -0.9899 H         1 <0>         0.0647
     46 H21        -0.4652  -14.2708   -1.8770 H         1 <0>         0.0728
     47 H22         1.8396  -13.4456   -2.2717 H         1 <0>         0.0755
     48 H23         0.8870  -13.4240   -3.7752 H         1 <0>         0.0683
     49 H24         2.1707  -11.3198   -3.5046 H         1 <0>         0.0778
     50 H25         1.3712  -11.0332   -1.9403 H         1 <0>         0.0754
     51 H26         0.3670   -7.0361   -5.0958 H         1 <0>         0.1294
     52 H27        -1.3949   -6.7847   -5.1239 H         1 <0>         0.1298
     53 H28        -0.5285   -6.8400   -3.5701 H         1 <0>         0.1229
     54 H29        -1.0015  -10.3227   -5.8304 H         1 <0>         0.1265
     55 H30        -1.6759   -8.7823   -6.4139 H         1 <0>         0.1286
     56 H31         0.0861   -9.0344   -6.4012 H         1 <0>         0.1277
     57 H32        -1.6423   -8.8937   -4.0321 H         1 <0>         0.4180
@<TRIPOS>BOND
     1    1    2 1
     2    1   27 1
     3    1   28 1
     4    1   29 1
     5    2    7 ar
     6    2    3 ar
     7    3    4 ar
     8    3   30 1
     9    4    5 ar
    10    4   31 1
    11    5    6 ar
    12    5    9 1
    13    6    7 ar
    14    6   32 1
    15    7    8 1
    16    8   33 1
    17    8   34 1
    18    8   35 1
    19    9   10 am
    20    9   36 1
    21   10   11 2
    22   10   12 1
    23   12   13 2
    24   12   14 am
    25   14   15 1
    26   14   37 1
    27   15   16 1
    28   15   38 1
    29   15   39 1
    30   16   17 1
    31   16   18 1
    32   16   24 1
    33   18   23 1
    34   18   19 1
    35   18   40 1
    36   19   20 1
    37   19   41 1
    38   19   42 1
    39   20   21 1
    40   20   43 1
    41   20   44 1
    42   21   22 1
    43   21   45 1
    44   21   46 1
    45   22   23 1
    46   22   47 1
    47   22   48 1
    48   23   49 1
    49   23   50 1
    50   24   25 1
    51   24   26 1
    52   24   57 1
    53   25   51 1
    54   25   52 1
    55   25   53 1
    56   26   54 1
    57   26   55 1
    58   26   56 1
@<TRIPOS>MOLECULE
ZINC54621927
   46    49     0     0     0
SMALL
USER_CHARGES

@<TRIPOS>ATOM
      1 C1         -1.0609    1.1856   -0.4006 C.3       1 <0>        -0.1418
      2 C2         -0.7573   -0.2869   -0.2964 C.ar      1 <0>         0.1846
      3 C3         -0.6219   -1.0377   -1.4471 C.ar      1 <0>        -0.1717
      4 C4         -0.3422   -2.3938   -1.3453 C.ar      1 <0>         0.0440
      5 C5         -0.2083   -2.9475   -0.0846 C.ar      1 <0>        -0.2019
      6 C6         -0.3575   -2.1314    1.0319 C.ar      1 <0>         0.4519
      7 N1         -0.6189   -0.8407    0.8931 N.ar      1 <0>        -0.5020
      8 N2         -0.2260   -2.6747    2.3047 N.pl3     1 <0>        -0.6979
      9 C7          0.0685   -4.1007    2.4656 C.3       1 <0>         0.2906
     10 H1         -0.4446   -4.6676    1.6888 H         1 <0>         0.1429
     11 C8         -0.4052   -4.5617    3.8199 C.ar      1 <0>        -0.1313
     12 C9         -0.4724   -3.6496    4.8698 C.ar      1 <0>        -0.1110
     13 C10        -0.8961   -4.0344    6.1054 C.ar      1 <0>        -0.0794
     14 C11        -1.2719   -5.3692    6.3285 C.ar      1 <0>        -0.0923
     15 C12        -1.7155   -5.8041    7.5918 C.ar      1 <0>        -0.0560
     16 C13        -2.0649   -7.1166    7.7352 C.ar      1 <0>        -0.1549
     17 C14        -1.9763   -7.9824    6.6471 C.ar      1 <0>         0.1714
     18 N3         -1.5627   -7.5733    5.4724 N.ar      1 <0>        -0.4630
     19 C15        -1.2061   -6.3025    5.2653 C.ar      1 <0>         0.1125
     20 C16        -0.7674   -5.8665    3.9973 C.ar      1 <0>         0.1722
     21 O1         -0.7006   -6.7409    2.9599 O.3       1 <0>        -0.4776
     22 C17        -2.3659   -9.4272    6.8255 C.3       1 <0>        -0.1137
     23 C18         1.5546   -4.3228    2.3509 C.2       1 <0>        -0.0628
     24 C19         2.1501   -5.3473    1.7143 C.2       1 <0>        -0.1746
     25 C20         3.5446   -5.1621    1.8551 C.2       1 <0>        -0.2099
     26 C21         3.7179   -4.0355    2.5694 C.2       1 <0>        -0.0183
     27 O2          2.5093   -3.5283    2.8619 O.3       1 <0>        -0.1691
     28 H2         -0.1275    1.7466   -0.4468 H         1 <0>         0.1140
     29 H3         -1.6429    1.3736   -1.3028 H         1 <0>         0.1181
     30 H4         -1.6318    1.5015    0.4726 H         1 <0>         0.0944
     31 H5         -0.7329   -0.5750   -2.4166 H         1 <0>         0.1813
     32 H6         -0.2321   -3.0029   -2.2303 H         1 <0>         0.1767
     33 H7          0.0088   -3.9991    0.0312 H         1 <0>         0.1771
     34 H8         -0.3292   -2.1095    3.0863 H         1 <0>         0.4196
     35 H9         -0.1839   -2.6225    4.7020 H         1 <0>         0.1233
     36 H10        -0.9428   -3.3162    6.9106 H         1 <0>         0.1412
     37 H11        -1.7776   -5.1190    8.4244 H         1 <0>         0.1484
     38 H12        -2.4091   -7.4831    8.6911 H         1 <0>         0.1475
     39 H13         0.1498   -7.1945    2.8820 H         1 <0>         0.3986
     40 H14        -3.4272   -9.5469    6.6078 H         1 <0>         0.0878
     41 H15        -1.7831  -10.0474    6.1444 H         1 <0>         0.0836
     42 H16        -2.1691   -9.7323    7.8532 H         1 <0>         0.0833
     43 H17         1.6574   -6.1564    1.1956 H         1 <0>         0.1576
     44 H18         4.3216   -5.8025    1.4645 H         1 <0>         0.1579
     45 H19         4.6680   -3.6090    2.8556 H         1 <0>         0.2098
     46 H20        -0.7148   -0.2895    1.6856 H         1 <0>         0.4388
@<TRIPOS>BOND
     1    1    2 1
     2    1   28 1
     3    1   29 1
     4    1   30 1
     5    2    7 ar
     6    2    3 ar
     7    3    4 ar
     8    3   31 1
     9    4    5 ar
    10    4   32 1
    11    5    6 ar
    12    5   33 1
    13    6    7 ar
    14    6    8 1
    15    7   46 1
    16    8    9 1
    17    8   34 1
    18    9   10 1
    19    9   11 1
    20    9   23 1
    21   11   20 ar
    22   11   12 ar
    23   12   13 ar
    24   12   35 1
    25   13   14 ar
    26   13   36 1
    27   14   19 ar
    28   14   15 ar
    29   15   16 ar
    30   15   37 1
    31   16   17 ar
    32   16   38 1
    33   17   18 ar
    34   17   22 1
    35   18   19 ar
    36   19   20 ar
    37   20   21 1
    38   21   39 1
    39   22   40 1
    40   22   41 1
    41   22   42 1
    42   23   27 1
    43   23   24 2
    44   24   25 1
    45   24   43 1
    46   25   26 2
    47   25   44 1
    48   26   27 1
    49   26   45 1
@<TRIPOS>MOLECULE
ZINC64661294
   48    51     0     0     0
SMALL
USER_CHARGES

@<TRIPOS>ATOM
      1 C1         -0.0167    1.3781    0.0096 C.ar      1 <0>        -0.1081
      2 C2          1.1709    2.0855    0.0021 C.ar      1 <0>        -0.1174
      3 C3          2.3773    1.4107   -0.0130 C.ar      1 <0>        -0.1012
      4 C4          2.3960    0.0285   -0.0201 C.ar      1 <0>        -0.0998
      5 C5          1.2084   -0.6789   -0.0117 C.ar      1 <0>        -0.0957
      6 C6          0.0021   -0.0041    0.0020 C.ar      1 <0>        -0.1192
      7 C7          3.7112   -0.7071   -0.0376 C.3       1 <0>         0.1008
      8 H1          4.5077   -0.0592   -0.4034 H         1 <0>         0.0988
      9 C8          4.0514   -1.2473    1.3682 C.3       1 <0>        -0.1272
     10 C9          4.5189   -2.6671    1.1067 C.2       1 <0>         0.2608
     11 N1          4.4859   -2.8548   -0.2499 N.pl3     1 <0>        -0.5649
     12 O1          3.6160   -1.8990   -0.8419 O.3       1 <0>        -0.1372
     13 C10         4.8959   -3.5718    2.0335 C.2       1 <0>        -0.3630
     14 C11         5.3096   -4.8638    1.6334 C.2       1 <0>         0.5765
     15 O2          5.3254   -5.1594    0.4521 O.2       1 <0>        -0.5762
     16 N2          5.6863   -5.7677    2.5594 N.am      1 <0>        -0.7386
     17 C12         6.1147   -7.1059    2.1449 C.3       1 <0>         0.1299
     18 C13         6.4859   -7.9282    3.3807 C.3       1 <0>        -0.1058
     19 C14         6.9266   -9.3048    2.9543 C.2       1 <0>         0.0741
     20 C15         8.1955   -9.7242    2.7461 C.ar      1 <0>        -0.1697
     21 C16         9.4952   -9.0499    2.8491 C.ar      1 <0>        -0.0106
     22 C17        10.6199   -9.7473    2.5703 C.ar      1 <0>        -0.1521
     23 C18        10.5756  -11.0945    2.1859 C.ar      1 <0>         0.0548
     24 C19         9.4197  -11.7818    2.0691 C.ar      1 <0>        -0.2103
     25 C20         8.1758  -11.1473    2.3387 C.ar      1 <0>         0.3275
     26 N3          6.9427  -11.5904    2.2967 N.pl3     1 <0>        -0.5858
     27 C21         6.0401  -10.4987    2.6790 C.3       1 <0>         0.0600
     28 H2         -0.9591    1.9053    0.0259 H         1 <0>         0.1269
     29 H3          1.1563    3.1654    0.0076 H         1 <0>         0.1288
     30 H4          3.3051    1.9634   -0.0196 H         1 <0>         0.1267
     31 H5          1.2231   -1.7588   -0.0176 H         1 <0>         0.1249
     32 H6         -0.9258   -0.5567    0.0082 H         1 <0>         0.1265
     33 H7          4.8491   -0.6590    1.8217 H         1 <0>         0.1171
     34 H8          3.1661   -1.2443    2.0041 H         1 <0>         0.1135
     35 H9          4.8819   -3.3096    3.0811 H         1 <0>         0.1428
     36 H10         4.9816   -3.5341   -0.7335 H         1 <0>         0.4576
     37 H11         5.6737   -5.5322    3.5003 H         1 <0>         0.4056
     38 H12         5.3020   -7.5987    1.6113 H         1 <0>         0.0743
     39 H13         6.9819   -7.0231    1.4897 H         1 <0>         0.0752
     40 H14         7.2987   -7.4355    3.9142 H         1 <0>         0.1157
     41 H15         5.6187   -8.0110    4.0358 H         1 <0>         0.1186
     42 H16         9.5525   -8.0122    3.1428 H         1 <0>         0.1607
     43 H17        11.5773   -9.2531    2.6455 H         1 <0>         0.1579
     44 H18        11.5044  -11.6034    1.9742 H         1 <0>         0.1609
     45 H19         9.4396  -12.8191    1.7690 H         1 <0>         0.1604
     46 H20         5.4817  -10.7668    3.5759 H         1 <0>         0.1752
     47 H21         5.3545  -10.2770    1.8611 H         1 <0>         0.1745
     48 H22         6.6725  -12.4906    2.0568 H         1 <0>         0.4559
@<TRIPOS>BOND
     1    1    6 ar
     2    1    2 ar
     3    1   28 1
     4    2    3 ar
     5    2   29 1
     6    3    4 ar
     7    3   30 1
     8    4    5 ar
     9    4    7 1
    10    5    6 ar
    11    5   31 1
    12    6   32 1
    13    7    8 1
    14    7   12 1
    15    7    9 1
    16    9   33 1
    17    9   34 1
    18    9   10 1
    19   10   13 2
    20   10   11 1
    21   11   12 1
    22   11   36 1
    23   13   14 1
    24   13   35 1
    25   14   15 2
    26   14   16 am
    27   16   17 1
    28   16   37 1
    29   17   18 1
    30   17   38 1
    31   17   39 1
    32   18   19 1
    33   18   40 1
    34   18   41 1
    35   19   27 1
    36   19   20 2
    37   20   25 ar
    38   20   21 ar
    39   21   22 ar
    40   21   42 1
    41   22   23 ar
    42   22   43 1
    43   23   24 ar
    44   23   44 1
    45   24   25 ar
    46   24   45 1
    47   25   26 2
    48   26   27 1
    49   26   48 1
    50   27   46 1
    51   27   47 1
@<TRIPOS>MOLECULE
ZINC02781990
   50    51     0     0     0
SMALL
USER_CHARGES
2-[4-chloro-5-methyl-3-(trifluoromethyl)pyrazol-1-yl]-N-(2,2,6,6-tetramethyl-4-piperidyl)-acetamide
@<TRIPOS>ATOM
      1 C1          2.3632    7.3161   -5.1557 C.3       1 <0>        -0.0983
      2 C2          1.0940    6.9197   -5.8649 C.2       1 <0>         0.1231
      3 C3          0.2137    7.7612   -6.4561 C.2       1 <0>        -0.1512
      4 C4         -0.8222    6.9906   -6.9958 C.2       1 <0>         0.0107
      5 N1         -0.5701    5.7318   -6.7426 N.2       1 <0>        -0.2140
      6 N2          0.6311    5.6612   -6.0252 N.pl3     1 <0>        -0.3403
      7 C5          1.2746    4.4378   -5.5401 C.3       1 <0>         0.1134
      8 C6          0.7789    4.1262   -4.1515 C.2       1 <0>         0.5013
      9 O1         -0.0320    4.8543   -3.6195 O.2       1 <0>        -0.5028
     10 N3          1.2369    3.0383   -3.5009 N.am      1 <0>        -0.7266
     11 C7          0.7540    2.7347   -2.1481 C.3       1 <0>         0.1404
     12 C8          1.8053    1.8992   -1.4151 C.3       1 <0>        -0.1363
     13 C9          1.3205    1.5766   -0.0021 C.3       1 <0>         0.0675
     14 C10        -1.0414    1.5509   -0.8522 C.3       1 <0>         0.0660
     15 C11        -0.5312    1.9128   -2.2446 C.3       1 <0>        -0.1406
     16 C12        -2.1411    0.4790   -1.0249 C.3       1 <0>        -0.1839
     17 C13        -1.7030    2.7784   -0.2141 C.3       1 <0>        -0.1740
     18 C14         1.3971    2.8330    0.8705 C.3       1 <0>        -0.1765
     19 C15         2.2947    0.5391    0.5980 C.3       1 <0>        -0.1841
     20 C16        -2.0185    7.5188   -7.7446 C.3       1 <0>         0.5549
     21 F1         -1.7231    7.5819   -9.1106 F         1 <0>        -0.1610
     22 F2         -3.1091    6.6662   -7.5423 F         1 <0>        -0.1639
     23 F3         -2.3340    8.7988   -7.2762 F         1 <0>        -0.1546
     24 Cl1         0.3459    9.4906   -6.5305 Cl        1 <0>        -0.0049
     25 H1          3.1875    7.3336   -5.8686 H         1 <0>         0.0971
     26 H2          2.2405    8.3067   -4.7178 H         1 <0>         0.1001
     27 H3          2.5796    6.5947   -4.3677 H         1 <0>         0.0752
     28 H4          2.3550    4.5803   -5.5168 H         1 <0>         0.1375
     29 H5          1.0315    3.6105   -6.2069 H         1 <0>         0.1397
     30 H6          1.8855    2.4560   -3.9264 H         1 <0>         0.4098
     31 H7          0.5712    3.6659   -1.6200 H         1 <0>         0.1085
     32 H8          2.7400    2.4597   -1.3598 H         1 <0>         0.1187
     33 H9          1.9769    0.9706   -1.9619 H         1 <0>         0.0972
     34 H10        -1.2928    2.4926   -2.7713 H         1 <0>         0.1150
     35 H11        -0.3341    0.9979   -2.8084 H         1 <0>         0.0929
     36 H12        -2.5599    0.2278   -0.0504 H         1 <0>         0.0840
     37 H13        -2.9292    0.8677   -1.6698 H         1 <0>         0.1061
     38 H14        -1.7099   -0.4145   -1.4764 H         1 <0>         0.0812
     39 H15        -0.9506    3.5478   -0.0409 H         1 <0>         0.0815
     40 H16        -2.4715    3.1658   -0.8831 H         1 <0>         0.1064
     41 H17        -2.1572    2.4941    0.7351 H         1 <0>         0.0832
     42 H18         1.1382    2.5780    1.8982 H         1 <0>         0.0852
     43 H19         2.4097    3.2352    0.8401 H         1 <0>         0.1067
     44 H20         0.6980    3.5799    0.4943 H         1 <0>         0.0827
     45 H21         2.2727   -0.3700   -0.0030 H         1 <0>         0.0821
     46 H22         3.3049    0.9484    0.6007 H         1 <0>         0.1068
     47 H23         1.9940    0.3067    1.6196 H         1 <0>         0.0848
     48 N4         -0.0272    0.9470    0.0527 N.4       1 <0>        -0.5095
     49 H24        -0.3749    1.0223    1.0158 H         1 <0>         0.4330
     50 H25         0.0737   -0.0435   -0.1983 H         1 <0>         0.4296
@<TRIPOS>BOND
     1    1    2 1
     2    1   25 1
     3    1   26 1
     4    1   27 1
     5    2    6 1
     6    2    3 2
     7    3    4 1
     8    3   24 1
     9    4    5 2
    10    4   20 1
    11    5    6 1
    12    6    7 1
    13    7    8 1
    14    7   28 1
    15    7   29 1
    16    8    9 2
    17    8   10 am
    18   10   11 1
    19   10   30 1
    20   11   15 1
    21   11   12 1
    22   11   31 1
    23   12   13 1
    24   12   32 1
    25   12   33 1
    26   13   18 1
    27   13   19 1
    28   13   48 1
    29   14   15 1
    30   14   16 1
    31   14   17 1
    32   14   48 1
    33   15   34 1
    34   15   35 1
    35   16   36 1
    36   16   37 1
    37   16   38 1
    38   17   39 1
    39   17   40 1
    40   17   41 1
    41   18   42 1
    42   18   43 1
    43   18   44 1
    44   19   45 1
    45   19   46 1
    46   19   47 1
    47   20   21 1
    48   20   22 1
    49   20   23 1
    50   48   49 1
    51   48   50 1
@<TRIPOS>MOLECULE
ZINC32070778
   49    52     0     0     0
SMALL
USER_CHARGES
4-[4-[[(2-hydroxy-1-naphthyl)methyleneamino]methyl]phenyl]piperazin-2-one
@<TRIPOS>ATOM
      1 C1          3.4869    9.5906   -4.7892 C.ar      1 <0>        -0.1241
      2 C2          3.0953    9.3865   -3.4685 C.ar      1 <0>        -0.0542
      3 C3          3.0331    8.1300   -2.9432 C.ar      1 <0>        -0.1471
      4 C4          3.3671    7.0291   -3.7409 C.ar      1 <0>         0.0374
      5 C5          3.7708    7.2335   -5.0826 C.ar      1 <0>        -0.1046
      6 C6          3.8282    8.5428   -5.5895 C.ar      1 <0>        -0.0622
      7 C7          4.0997    6.1259   -5.8845 C.ar      1 <0>         0.0440
      8 C8          4.0398    4.8637   -5.3857 C.ar      1 <0>        -0.1850
      9 C9          3.6537    4.6115   -4.0690 C.ar      1 <0>         0.2762
     10 C10         3.3139    5.6647   -3.2186 C.ar      1 <0>        -0.2729
     11 C11         2.9060    5.4075   -1.8309 C.2       1 <0>         0.3580
     12 N1          2.8586    4.1912   -1.3840 N.pl3     1 <0>        -0.5691
     13 C12         2.4518    3.9347   -0.0002 C.3       1 <0>         0.1055
     14 C13         1.1556    3.1660    0.0081 C.ar      1 <0>        -0.1798
     15 C14         1.1734    1.7833    0.0004 C.ar      1 <0>        -0.0697
     16 C15        -0.0126    1.0758    0.0080 C.ar      1 <0>        -0.1356
     17 C16        -1.2244    1.7547    0.0174 C.ar      1 <0>         0.1414
     18 C17        -1.2387    3.1437    0.0309 C.ar      1 <0>        -0.1689
     19 C18        -0.0490    3.8450    0.0228 C.ar      1 <0>        -0.0623
     20 N2         -2.4258    1.0424    0.0192 N.pl3     1 <0>        -0.4842
     21 C19        -3.5801    1.9549    0.0551 C.3       1 <0>         0.0223
     22 C20        -4.8475    1.1559   -0.2547 C.3       1 <0>         0.1166
     23 N3         -4.9082   -0.0335    0.5900 N.am      1 <0>        -0.7310
     24 C21        -3.8403   -0.5311    1.2224 C.2       1 <0>         0.5210
     25 O1         -3.9729   -1.5416    1.8799 O.2       1 <0>        -0.5408
     26 C22        -2.4826    0.1088    1.1520 C.3       1 <0>         0.0386
     27 O2          3.6079    3.3352   -3.6127 O.3       1 <0>        -0.4610
     28 H1          3.5283   10.5956   -5.1824 H         1 <0>         0.1399
     29 H2          2.8378   10.2350   -2.8520 H         1 <0>         0.1399
     30 H3          2.7276    7.9847   -1.9175 H         1 <0>         0.1320
     31 H4          4.1296    8.7163   -6.6119 H         1 <0>         0.1445
     32 H5          4.4033    6.2806   -6.9093 H         1 <0>         0.1605
     33 H6          4.2976    4.0330   -6.0259 H         1 <0>         0.1583
     34 H7          2.6408    6.2466   -1.1710 H         1 <0>         0.2128
     35 H8          3.2302    3.3464    0.5078 H         1 <0>         0.1324
     36 H9          2.3141    4.8914    0.5249 H         1 <0>         0.1291
     37 H10         2.1159    1.2561   -0.0118 H         1 <0>         0.1332
     38 H11         0.0021   -0.0041    0.0020 H         1 <0>         0.1382
     39 H12        -2.1791    3.6746    0.0424 H         1 <0>         0.1396
     40 H13        -0.0594    4.9250    0.0284 H         1 <0>         0.1293
     41 H14        -3.6589    2.4073    1.0547 H         1 <0>         0.0649
     42 H15        -3.4449    2.7469   -0.6962 H         1 <0>         0.1085
     43 H16        -5.7316    1.7815   -0.0622 H         1 <0>         0.0921
     44 H17        -4.8385    0.8490   -1.3110 H         1 <0>         0.0791
     45 H18        -5.8631   -0.5617    0.7283 H         1 <0>         0.4331
     46 H19        -1.7201   -0.6732    1.0212 H         1 <0>         0.1240
     47 H20        -2.2909    0.6550    2.0873 H         1 <0>         0.0878
     48 H21         3.3039    3.1326   -2.5751 H         1 <0>         0.3966
     49 H22         3.1238    3.3521   -2.0439 H         1 <0>         0.4157
@<TRIPOS>BOND
     1    1    6 ar
     2    1    2 ar
     3    1   28 1
     4    2    3 ar
     5    2   29 1
     6    3    4 ar
     7    3   30 1
     8    4   10 ar
     9    4    5 ar
    10    5    6 ar
    11    5    7 ar
    12    6   31 1
    13    7    8 ar
    14    7   32 1
    15    8    9 ar
    16    8   33 1
    17    9   10 ar
    18    9   27 1
    19   10   11 1
    20   11   12 2
    21   11   34 1
    22   12   13 1
    23   12   49 1
    24   13   14 1
    25   13   35 1
    26   13   36 1
    27   14   19 ar
    28   14   15 ar
    29   15   16 ar
    30   15   37 1
    31   16   17 ar
    32   16   38 1
    33   17   18 ar
    34   17   20 1
    35   18   19 ar
    36   18   39 1
    37   19   40 1
    38   20   26 1
    39   20   21 1
    40   21   22 1
    41   21   41 1
    42   21   42 1
    43   22   23 1
    44   22   43 1
    45   22   44 1
    46   23   24 am
    47   23   45 1
    48   24   25 2
    49   24   26 1
    50   26   46 1
    51   26   47 1
    52   27   48 1
@<TRIPOS>MOLECULE
ZINC51154135
   58    61     0     0     0
SMALL
USER_CHARGES

@<TRIPOS>ATOM
      1 C1          2.5324   -4.3347    1.7358 C.ar      1 <0>        -0.1108
      2 C2          2.6190   -3.1716    2.4783 C.ar      1 <0>        -0.1194
      3 C3          3.0098   -1.9976    1.8689 C.ar      1 <0>        -0.1213
      4 C4          3.3189   -1.9739    0.5147 C.ar      1 <0>        -0.0829
      5 C5          3.2376   -3.1330   -0.2234 C.ar      1 <0>        -0.0672
      6 C6          2.8403   -4.3136    0.3914 C.ar      1 <0>        -0.1185
      7 C7          3.5730   -3.1847   -1.6910 C.3       1 <0>        -0.0862
      8 C8          3.5643   -1.7815   -2.2939 C.3       1 <0>        -0.1207
      9 C9          4.4410   -0.8747   -1.4222 C.3       1 <0>        -0.1156
     10 C10         3.7308   -0.6563   -0.0878 C.3       1 <0>        -0.0553
     11 H1          2.8449   -0.0419   -0.2484 H         1 <0>         0.0909
     12 C11         4.6763    0.0651    0.8748 C.3       1 <0>         0.1194
     13 N1          5.0233    1.3783    0.3260 N.am      1 <0>        -0.6998
     14 C12         5.9294    2.1533    0.9544 C.2       1 <0>         0.4996
     15 O1          6.4576    1.7634    1.9742 O.2       1 <0>        -0.5261
     16 C13         6.2864    3.5042    0.3899 C.3       1 <0>        -0.0324
     17 N2          7.2881    4.1459    1.2517 N.4       1 <0>        -0.3682
     18 C14         6.7000    4.4081    2.5713 C.3       1 <0>        -0.0326
     19 C15         7.7756    4.9716    3.5059 C.3       1 <0>         0.1050
     20 N3          8.3792    6.1503    2.8651 N.pl3     1 <0>        -0.6456
     21 C16         8.8492    6.0202    1.4771 C.3       1 <0>         0.1007
     22 C17         7.7229    5.4072    0.6384 C.3       1 <0>        -0.0228
     23 C18         8.5023    7.3609    3.5560 C.ar      1 <0>         0.1883
     24 C19         8.1645    7.4307    4.9011 C.ar      1 <0>        -0.1680
     25 C20         8.2868    8.6258    5.5823 C.ar      1 <0>        -0.0967
     26 C21         8.7469    9.7562    4.9233 C.ar      1 <0>         0.0705
     27 C22         9.0841    9.6876    3.5797 C.ar      1 <0>        -0.0972
     28 C23         8.9679    8.4919    2.8984 C.ar      1 <0>        -0.1697
     29 O2          8.8670   10.9327    5.5949 O.3       1 <0>        -0.4972
     30 H2          2.2291   -5.2576    2.2078 H         1 <0>         0.1262
     31 H3          2.3812   -3.1822    3.5317 H         1 <0>         0.1248
     32 H4          3.0758   -1.0891    2.4491 H         1 <0>         0.1200
     33 H5          2.7716   -5.2224   -0.1881 H         1 <0>         0.1249
     34 H6          4.5621   -3.6245   -1.8183 H         1 <0>         0.0789
     35 H7          2.8369   -3.8018   -2.2063 H         1 <0>         0.0796
     36 H8          3.9645   -1.8149   -3.3072 H         1 <0>         0.0735
     37 H9          2.5446   -1.3969   -2.3140 H         1 <0>         0.0688
     38 H10         5.4059   -1.3518   -1.2507 H         1 <0>         0.0709
     39 H11         4.5881    0.0833   -1.9210 H         1 <0>         0.0643
     40 H12         4.1850    0.1927    1.8394 H         1 <0>         0.0836
     41 H13         5.5831   -0.5257    1.0043 H         1 <0>         0.0855
     42 H14         4.6009    1.6901   -0.4896 H         1 <0>         0.4110
     43 H15         6.6947    3.3824   -0.6134 H         1 <0>         0.1617
     44 H16         5.3929    4.1270    0.3454 H         1 <0>         0.1594
     45 H17         5.8904    5.1310    2.4713 H         1 <0>         0.1295
     46 H18         6.3088    3.4791    2.9860 H         1 <0>         0.1565
     47 H19         7.3219    5.2620    4.4535 H         1 <0>         0.1262
     48 H20         8.5421    4.2164    3.6796 H         1 <0>         0.0900
     49 H21         9.1053    7.0039    1.0835 H         1 <0>         0.1288
     50 H22         9.7241    5.3709    1.4460 H         1 <0>         0.0894
     51 H23         8.0854    5.2144   -0.3713 H         1 <0>         0.1430
     52 H24         6.8824    6.0999    0.5968 H         1 <0>         0.1356
     53 H25         7.8059    6.5506    5.4142 H         1 <0>         0.1281
     54 H26         8.0237    8.6803    6.6284 H         1 <0>         0.1350
     55 H27         9.4420   10.5683    3.0673 H         1 <0>         0.1348
     56 H28         9.2351    8.4375    1.8533 H         1 <0>         0.1275
     57 H29         9.7314   11.0631    6.0084 H         1 <0>         0.3929
     58 H30         8.0826    3.5326    1.3560 H         1 <0>         0.4297
@<TRIPOS>BOND
     1    1    6 ar
     2    1    2 ar
     3    1   30 1
     4    2    3 ar
     5    2   31 1
     6    3    4 ar
     7    3   32 1
     8    4   10 1
     9    4    5 ar
    10    5    6 ar
    11    5    7 1
    12    6   33 1
    13    7    8 1
    14    7   34 1
    15    7   35 1
    16    8    9 1
    17    8   36 1
    18    8   37 1
    19    9   10 1
    20    9   38 1
    21    9   39 1
    22   10   11 1
    23   10   12 1
    24   12   13 1
    25   12   40 1
    26   12   41 1
    27   13   14 am
    28   13   42 1
    29   14   15 2
    30   14   16 1
    31   16   17 1
    32   16   43 1
    33   16   44 1
    34   17   22 1
    35   17   18 1
    36   17   58 1
    37   18   19 1
    38   18   45 1
    39   18   46 1
    40   19   20 1
    41   19   47 1
    42   19   48 1
    43   20   21 1
    44   20   23 1
    45   21   22 1
    46   21   49 1
    47   21   50 1
    48   22   51 1
    49   22   52 1
    50   23   28 ar
    51   23   24 ar
    52   24   25 ar
    53   24   53 1
    54   25   26 ar
    55   25   54 1
    56   26   27 ar
    57   26   29 1
    58   27   28 ar
    59   27   55 1
    60   28   56 1
    61   29   57 1
@<TRIPOS>MOLECULE
ZINC63802707
   57    59     0     0     0
SMALL
USER_CHARGES

@<TRIPOS>ATOM
      1 C1          0.1299    1.0437    0.1688 C.3       1 <0>        -0.1526
      2 C2          0.1084   -0.4810    0.2945 C.3       1 <0>        -0.0986
      3 C3          0.6358   -1.1068   -0.9983 C.3       1 <0>        -0.1288
      4 C4          0.6143   -2.6314   -0.8726 C.3       1 <0>        -0.1315
      5 C5          1.5002   -3.0591    0.2993 C.3       1 <0>        -0.1397
      6 C6          0.9728   -2.4333    1.5921 C.3       1 <0>         0.0491
      7 C7          0.9942   -0.9086    1.4664 C.3       1 <0>        -0.1374
      8 C8          1.8586   -2.8609    2.7640 C.3       1 <0>         0.1081
      9 N1          3.2493   -2.4952    2.4838 N.am      1 <0>        -0.7219
     10 C9          4.2279   -2.8667    3.3328 C.2       1 <0>         0.5912
     11 O1          3.9478   -3.4227    4.3781 O.2       1 <0>        -0.5405
     12 C10         5.6331   -2.6001    2.9960 C.2       1 <0>        -0.3071
     13 C11         6.6591   -3.0942    3.8037 C.2       1 <0>         0.0866
     14 C12         7.9783   -2.8263    3.4606 C.2       1 <0>        -0.2355
     15 C13         8.2586   -2.0791    2.3318 C.2       1 <0>         0.2654
     16 N2          7.2529   -1.5975    1.5451 N.am      1 <0>        -0.5942
     17 H1          7.4704   -1.0753    0.7571 H         1 <0>         0.4208
     18 C14         5.9633   -1.8431    1.8438 C.2       1 <0>         0.5454
     19 O2          5.0788   -1.4096    1.1259 O.2       1 <0>        -0.5598
     20 C15         9.6629   -1.7984    1.9733 C.ar      1 <0>        -0.1013
     21 C16        10.7017   -2.2901    2.7675 C.ar      1 <0>        -0.0722
     22 C17        12.0113   -2.0239    2.4266 C.ar      1 <0>        -0.1164
     23 C18        12.2975   -1.2716    1.3009 C.ar      1 <0>        -0.0843
     24 C19        11.2735   -0.7809    0.5098 C.ar      1 <0>        -0.1154
     25 C20         9.9594   -1.0446    0.8352 C.ar      1 <0>        -0.0946
     26 N3         -0.4046   -2.8858    1.8288 N.4       1 <0>        -0.3772
     27 C21        -0.4128   -4.3394    2.0411 C.3       1 <0>        -0.0618
     28 C22        -0.9430   -2.2140    3.0190 C.3       1 <0>        -0.0615
     29 H2          1.1519    1.3794   -0.0068 H         1 <0>         0.0660
     30 H3         -0.5012    1.3483   -0.6661 H         1 <0>         0.0677
     31 H4         -0.2458    1.4895    1.0898 H         1 <0>         0.0617
     32 H5         -0.9136   -0.8168    0.4701 H         1 <0>         0.0634
     33 H6          0.0047   -0.8021   -1.8332 H         1 <0>         0.0816
     34 H7          1.6578   -0.7710   -1.1739 H         1 <0>         0.0817
     35 H8         -0.4077   -2.9672   -0.6970 H         1 <0>         0.0569
     36 H9          0.9900   -3.0772   -1.7936 H         1 <0>         0.0941
     37 H10         1.4849   -4.1453    0.3888 H         1 <0>         0.0915
     38 H11         2.5222   -2.7233    0.1237 H         1 <0>         0.1143
     39 H12         2.0163   -0.5729    1.2907 H         1 <0>         0.1140
     40 H13         0.6186   -0.4628    2.3874 H         1 <0>         0.0933
     41 H14         1.5267   -2.3585    3.6725 H         1 <0>         0.0867
     42 H15         1.7869   -3.9402    2.8987 H         1 <0>         0.0896
     43 H16         3.4658   -1.9857    1.6873 H         1 <0>         0.4204
     44 H17         6.4301   -3.6767    4.6839 H         1 <0>         0.1578
     45 H18         8.7837   -3.2009    4.0750 H         1 <0>         0.1638
     46 H19        10.4797   -2.8770    3.6465 H         1 <0>         0.1393
     47 H20        12.8154   -2.4031    3.0398 H         1 <0>         0.1382
     48 H21        13.3248   -1.0662    1.0386 H         1 <0>         0.1352
     49 H22        11.5041   -0.1942   -0.3672 H         1 <0>         0.1356
     50 H23         9.1614   -0.6654    0.2140 H         1 <0>         0.1233
     51 H24         0.1239   -4.5754    2.9600 H         1 <0>         0.1274
     52 H25        -1.4421   -4.6890    2.1214 H         1 <0>         0.1289
     53 H26         0.0737   -4.8323    1.1994 H         1 <0>         0.1262
     54 H27        -0.9369   -1.1355    2.8615 H         1 <0>         0.1271
     55 H28        -1.9650   -2.5498    3.1947 H         1 <0>         0.1288
     56 H29        -0.3265   -2.4583    3.8842 H         1 <0>         0.1263
     57 H30        -0.9752   -2.6597    1.0279 H         1 <0>         0.4253
@<TRIPOS>BOND
     1    1    2 1
     2    1   29 1
     3    1   30 1
     4    1   31 1
     5    2    7 1
     6    2    3 1
     7    2   32 1
     8    3    4 1
     9    3   33 1
    10    3   34 1
    11    4    5 1
    12    4   35 1
    13    4   36 1
    14    5    6 1
    15    5   37 1
    16    5   38 1
    17    6    7 1
    18    6    8 1
    19    6   26 1
    20    7   39 1
    21    7   40 1
    22    8    9 1
    23    8   41 1
    24    8   42 1
    25    9   10 am
    26    9   43 1
    27   10   11 2
    28   10   12 1
    29   12   18 1
    30   12   13 2
    31   13   14 1
    32   13   44 1
    33   14   15 2
    34   14   45 1
    35   15   16 1
    36   15   20 1
    37   16   17 1
    38   16   18 am
    39   18   19 2
    40   20   25 ar
    41   20   21 ar
    42   21   22 ar
    43   21   46 1
    44   22   23 ar
    45   22   47 1
    46   23   24 ar
    47   23   48 1
    48   24   25 ar
    49   24   49 1
    50   25   50 1
    51   26   27 1
    52   26   28 1
    53   26   57 1
    54   27   51 1
    55   27   52 1
    56   27   53 1
    57   28   54 1
    58   28   55 1
    59   28   56 1
@<TRIPOS>MOLECULE
ZINC65963954
   64    66     0     0     0
SMALL
USER_CHARGES

@<TRIPOS>ATOM
      1 C1         -0.5573    1.4139    0.1341 C.3       1 <0>        -0.1785
      2 C2          0.0021   -0.0041    0.0020 C.3       1 <0>         0.0042
      3 C3          0.6735   -0.4013    1.2914 C.2       1 <0>         0.5035
      4 O1          0.0408   -0.9739    2.1532 O.2       1 <0>        -0.5206
      5 N1          1.9771   -0.1203    1.4868 N.am      1 <0>        -0.6991
      6 C4          2.6298   -0.5064    2.7402 C.3       1 <0>         0.1409
      7 C5          3.1084   -1.9562    2.6404 C.3       1 <0>        -0.1271
      8 C6          3.7901   -2.3595    3.9494 C.3       1 <0>        -0.1192
      9 C7          4.9886   -1.4432    4.2037 C.3       1 <0>        -0.1261
     10 C8          4.5100    0.0066    4.3035 C.3       1 <0>        -0.1183
     11 C9          3.8283    0.4099    2.9944 C.3       1 <0>        -0.1280
     12 N2         -1.0943   -0.9380   -0.2871 N.4       1 <0>        -0.3711
     13 C10        -0.5589   -2.3004   -0.3949 C.3       1 <0>        -0.0077
     14 C11        -1.7070   -3.2878   -0.6155 C.3       1 <0>        -0.1512
     15 C12        -2.4448   -2.9239   -1.9072 C.3       1 <0>         0.1351
     16 C13        -2.9346   -1.4759   -1.8131 C.3       1 <0>        -0.1592
     17 C14        -1.7410   -0.5558   -1.5481 C.3       1 <0>        -0.0069
     18 N3         -3.5914   -3.8182   -2.0849 N.am      1 <0>        -0.7316
     19 C15        -4.0813   -4.0487   -3.3192 C.2       1 <0>         0.5241
     20 O2         -3.5729   -3.5157   -4.2827 O.2       1 <0>        -0.5274
     21 C16        -5.2608   -4.9687   -3.5021 C.3       1 <0>        -0.1060
     22 C17        -4.9066   -6.3622   -2.9789 C.3       1 <0>        -0.1091
     23 C18        -6.1041   -7.2962   -3.1645 C.3       1 <0>        -0.1198
     24 C19        -6.4568   -7.3840   -4.6507 C.3       1 <0>        -0.1251
     25 C20        -6.8110   -5.9905   -5.1740 C.3       1 <0>        -0.1221
     26 C21        -5.6135   -5.0565   -4.9883 C.3       1 <0>        -0.1002
     27 H1          0.2562    2.1069    0.3486 H         1 <0>         0.1113
     28 H2         -1.0429    1.7012   -0.7985 H         1 <0>         0.0985
     29 H3         -1.2837    1.4437    0.9462 H         1 <0>         0.0908
     30 H4          0.7285   -0.0339   -0.8101 H         1 <0>         0.1567
     31 H5          2.4831    0.3377    0.7975 H         1 <0>         0.4089
     32 H6          1.9206   -0.4137    3.5627 H         1 <0>         0.0974
     33 H7          2.2545   -2.6091    2.4592 H         1 <0>         0.0641
     34 H8          3.8176   -2.0489    1.8178 H         1 <0>         0.0680
     35 H9          3.0809   -2.2668    4.7719 H         1 <0>         0.0670
     36 H10         4.1310   -3.3924    3.8783 H         1 <0>         0.0710
     37 H11         5.4742   -1.7305    5.1363 H         1 <0>         0.0708
     38 H12         5.6978   -1.5359    3.3811 H         1 <0>         0.0654
     39 H13         3.8008    0.0993    5.1260 H         1 <0>         0.0679
     40 H14         5.3639    0.6595    4.4846 H         1 <0>         0.0745
     41 H15         4.5375    0.3172    2.1719 H         1 <0>         0.0725
     42 H16         3.4874    1.4428    3.0655 H         1 <0>         0.0723
     43 H17         0.1319   -2.3533   -1.2364 H         1 <0>         0.1320
     44 H18        -0.0313   -2.5568    0.5238 H         1 <0>         0.1376
     45 H19        -1.3072   -4.2985   -0.6971 H         1 <0>         0.1204
     46 H20        -2.3983   -3.2359    0.2256 H         1 <0>         0.0967
     47 H21        -1.7672   -3.0251   -2.7549 H         1 <0>         0.1053
     48 H22        -3.4122   -1.1916   -2.7507 H         1 <0>         0.1199
     49 H23        -3.6514   -1.3864   -0.9968 H         1 <0>         0.0923
     50 H24        -2.0861    0.4760   -1.4808 H         1 <0>         0.1391
     51 H25        -1.0250   -0.6458   -2.3650 H         1 <0>         0.1346
     52 H26        -3.9981   -4.2446   -1.3144 H         1 <0>         0.4070
     53 H27        -6.1149   -4.5790   -2.9483 H         1 <0>         0.1006
     54 H28        -4.0525   -6.7519   -3.5326 H         1 <0>         0.0692
     55 H29        -4.6553   -6.2997   -1.9201 H         1 <0>         0.0640
     56 H30        -5.8517   -8.2890   -2.7918 H         1 <0>         0.0691
     57 H31        -6.9582   -6.9065   -2.6108 H         1 <0>         0.0659
     58 H32        -5.6027   -7.7737   -5.2045 H         1 <0>         0.0641
     59 H33        -7.3099   -8.0494   -4.7830 H         1 <0>         0.0673
     60 H34        -7.0623   -6.0530   -6.2328 H         1 <0>         0.0698
     61 H35        -7.6651   -5.6007   -4.6202 H         1 <0>         0.0639
     62 H36        -5.8659   -4.0637   -5.3610 H         1 <0>         0.0696
     63 H37        -4.7594   -5.4462   -5.5420 H         1 <0>         0.0708
     64 H38        -1.7708   -0.9029    0.4608 H         1 <0>         0.4301
@<TRIPOS>BOND
     1    1    2 1
     2    1   27 1
     3    1   28 1
     4    1   29 1
     5    2    3 1
     6    2   12 1
     7    2   30 1
     8    3    4 2
     9    3    5 am
    10    5    6 1
    11    5   31 1
    12    6   11 1
    13    6    7 1
    14    6   32 1
    15    7    8 1
    16    7   33 1
    17    7   34 1
    18    8    9 1
    19    8   35 1
    20    8   36 1
    21    9   10 1
    22    9   37 1
    23    9   38 1
    24   10   11 1
    25   10   39 1
    26   10   40 1
    27   11   41 1
    28   11   42 1
    29   12   17 1
    30   12   13 1
    31   12   64 1
    32   13   14 1
    33   13   43 1
    34   13   44 1
    35   14   15 1
    36   14   45 1
    37   14   46 1
    38   15   16 1
    39   15   18 1
    40   15   47 1
    41   16   17 1
    42   16   48 1
    43   16   49 1
    44   17   50 1
    45   17   51 1
    46   18   19 am
    47   18   52 1
    48   19   20 2
    49   19   21 1
    50   21   26 1
    51   21   22 1
    52   21   53 1
    53   22   23 1
    54   22   54 1
    55   22   55 1
    56   23   24 1
    57   23   56 1
    58   23   57 1
    59   24   25 1
    60   24   58 1
    61   24   59 1
    62   25   26 1
    63   25   60 1
    64   25   61 1
    65   26   62 1
    66   26   63 1
@<TRIPOS>MOLECULE
ZINC04841959
   47    50     0     0     0
SMALL
USER_CHARGES
5-[(4-methoxyphenyl)-(2-pyridylamino)methyl]quinolin-6-ol
@<TRIPOS>ATOM
      1 C1          2.6648    4.7171    0.0655 C.3       1 <0>         0.0232
      2 O1          2.5916    3.2998   -0.1019 O.3       1 <0>        -0.3098
      3 C2          1.3548    2.7376   -0.0671 C.ar      1 <0>         0.1488
      4 C3          1.2102    1.3666   -0.2229 C.ar      1 <0>        -0.1391
      5 C4         -0.0481    0.7976   -0.1876 C.ar      1 <0>        -0.0565
      6 C5         -1.1633    1.5938   -0.0029 C.ar      1 <0>        -0.1474
      7 C6         -1.0213    2.9597    0.1583 C.ar      1 <0>        -0.0841
      8 C7          0.2348    3.5336    0.1237 C.ar      1 <0>        -0.2012
      9 C8         -2.5353    0.9712    0.0285 C.3       1 <0>         0.2448
     10 H1         -2.4545   -0.0707    0.3384 H         1 <0>         0.1137
     11 C9         -3.1498    1.0402   -1.3458 C.ar      1 <0>        -0.1304
     12 C10        -3.1914   -0.1030   -2.1590 C.ar      1 <0>        -0.0716
     13 C11        -2.6780   -1.3364   -1.7147 C.ar      1 <0>        -0.0854
     14 C12        -2.7577   -2.4086   -2.5569 C.ar      1 <0>        -0.1477
     15 C13        -3.3409   -2.2633   -3.8139 C.ar      1 <0>         0.1362
     16 N1         -3.8230   -1.1148   -4.2221 N.ar      1 <0>        -0.4593
     17 C14        -3.7768   -0.0264   -3.4472 C.ar      1 <0>         0.1216
     18 C15        -4.2966    1.2024   -3.8920 C.ar      1 <0>        -0.0522
     19 C16        -4.2373    2.2941   -3.0836 C.ar      1 <0>        -0.1340
     20 C17        -3.6649    2.2172   -1.8101 C.ar      1 <0>         0.1435
     21 O2         -3.6200    3.3259   -1.0256 O.3       1 <0>        -0.5039
     22 N2         -3.3803    1.6991    0.9784 N.pl3     1 <0>        -0.6783
     23 C18        -4.4620    1.0627    1.5757 C.ar      1 <0>         0.4614
     24 C19        -4.7368   -0.2659    1.2670 C.ar      1 <0>        -0.2047
     25 C20        -5.8162   -0.8868    1.8687 C.ar      1 <0>         0.0476
     26 C21        -6.5879   -0.1556    2.7624 C.ar      1 <0>        -0.1726
     27 C22        -6.2579    1.1592    3.0223 C.ar      1 <0>         0.1550
     28 H2          2.0983    5.2063   -0.7269 H         1 <0>         0.0598
     29 H3          2.2458    4.9907    1.0338 H         1 <0>         0.0593
     30 H4          3.7062    5.0353    0.0172 H         1 <0>         0.1088
     31 H5          2.0806    0.7448   -0.3720 H         1 <0>         0.1422
     32 H6         -0.1612   -0.2696   -0.3088 H         1 <0>         0.1343
     33 H7         -1.8936    3.5790    0.3065 H         1 <0>         0.1258
     34 H8          0.3448    4.6011    0.2456 H         1 <0>         0.1373
     35 H9         -2.2290   -1.4309   -0.7370 H         1 <0>         0.1371
     36 H10        -2.3694   -3.3681   -2.2487 H         1 <0>         0.1474
     37 H11        -3.3974   -3.1198   -4.4693 H         1 <0>         0.1685
     38 H12        -4.7414    1.2788   -4.8732 H         1 <0>         0.1483
     39 H13        -4.6381    3.2350   -3.4305 H         1 <0>         0.1430
     40 H14        -2.8623    3.9009   -1.2002 H         1 <0>         0.3958
     41 H15        -3.1849    2.6253    1.1905 H         1 <0>         0.4208
     42 H16        -4.1153   -0.8051    0.5674 H         1 <0>         0.1727
     43 H17        -6.0539   -1.9170    1.6483 H         1 <0>         0.1729
     44 H18        -7.4378   -0.6110    3.2488 H         1 <0>         0.1828
     45 H19        -6.8553    1.7314    3.7166 H         1 <0>         0.1949
     46 N3         -5.2011    1.7997    2.4543 N.ar      1 <0>        -0.5368
     47 H20        -4.9738    2.7768    2.6729 H         1 <0>         0.4675
@<TRIPOS>BOND
     1    1    2 1
     2    1   28 1
     3    1   29 1
     4    1   30 1
     5    2    3 1
     6    3    8 ar
     7    3    4 ar
     8    4    5 ar
     9    4   31 1
    10    5    6 ar
    11    5   32 1
    12    6    7 ar
    13    6    9 1
    14    7    8 ar
    15    7   33 1
    16    8   34 1
    17    9   10 1
    18    9   11 1
    19    9   22 1
    20   11   20 ar
    21   11   12 ar
    22   12   17 ar
    23   12   13 ar
    24   13   14 ar
    25   13   35 1
    26   14   15 ar
    27   14   36 1
    28   15   16 ar
    29   15   37 1
    30   16   17 ar
    31   17   18 ar
    32   18   19 ar
    33   18   38 1
    34   19   20 ar
    35   19   39 1
    36   20   21 1
    37   21   40 1
    38   22   23 1
    39   22   41 1
    40   23   24 ar
    41   23   46 ar
    42   24   25 ar
    43   24   42 1
    44   25   26 ar
    45   25   43 1
    46   26   27 ar
    47   26   44 1
    48   27   45 1
    49   27   46 ar
    50   46   47 1
@<TRIPOS>MOLECULE
ZINC12316169
   55    58     0     0     0
SMALL
USER_CHARGES
(4S)-2,2-dimethyl-N-[[3-(4-phenylphenyl)-1H-pyrazol-4-yl]methyl]tetrahydropyran-4-amine
@<TRIPOS>ATOM
      1 C1          2.0939   -3.3330   -1.9466 C.3       1 <0>        -0.1899
      2 C2          2.7775   -3.3334   -0.5779 C.3       1 <0>         0.1222
      3 C3          1.8985   -2.5911    0.4321 C.3       1 <0>        -0.1686
      4 C4          1.7456   -1.1327   -0.0107 C.3       1 <0>         0.0236
      5 H1          1.2333   -1.0939   -0.9721 H         1 <0>         0.1419
      6 C5          3.1355   -0.5030   -0.1451 C.3       1 <0>        -0.1754
      7 C6          3.9667   -1.3260   -1.1327 C.3       1 <0>         0.0596
      8 O1          4.0437   -2.6783   -0.6774 O.3       1 <0>        -0.3596
      9 C7          0.3089    0.7744    0.3909 C.3       1 <0>         0.0868
     10 C8         -0.5811    1.4315    1.4142 C.2       1 <0>        -0.3143
     11 C9         -0.3294    2.5909    2.0600 C.2       1 <0>         0.1219
     12 N1         -1.3646    2.8385    2.8912 N.pl3     1 <0>        -0.4561
     13 H2         -1.4542    3.6286    3.4976 H         1 <0>         0.4627
     14 N2         -2.2910    1.7966    2.7566 N.2       1 <0>        -0.2555
     15 C10        -1.8263    0.9488    1.8629 C.2       1 <0>         0.1406
     16 C11        -2.4940   -0.2963    1.4108 C.ar      1 <0>        -0.0537
     17 C12        -2.5180   -0.6218    0.0552 C.ar      1 <0>        -0.1032
     18 C13        -3.1339   -1.7805   -0.3641 C.ar      1 <0>        -0.1128
     19 C14        -3.7426   -2.6225    0.5660 C.ar      1 <0>        -0.0102
     20 C15        -3.7232   -2.2941    1.9212 C.ar      1 <0>        -0.1090
     21 C16        -3.1027   -1.1381    2.3409 C.ar      1 <0>        -0.0780
     22 C17        -4.4111   -3.8668    0.1140 C.ar      1 <0>        -0.0685
     23 C18        -5.0157   -4.7129    1.0420 C.ar      1 <0>        -0.1036
     24 C19        -5.6401   -5.8673    0.6151 C.ar      1 <0>        -0.1162
     25 C20        -5.6581   -6.1902   -0.7298 C.ar      1 <0>        -0.1054
     26 C21        -5.0551   -5.3569   -1.6547 C.ar      1 <0>        -0.1175
     27 C22        -4.4320   -4.1975   -1.2399 C.ar      1 <0>        -0.1048
     28 C23         2.9846   -4.7757   -0.1113 C.3       1 <0>        -0.1457
     29 H3          2.7203   -3.8607   -2.6658 H         1 <0>         0.0794
     30 H4          1.1281   -3.8327   -1.8705 H         1 <0>         0.0764
     31 H5          1.9461   -2.3054   -2.2787 H         1 <0>         0.0597
     32 H6          2.3656   -2.6258    1.4163 H         1 <0>         0.0971
     33 H7          0.9170   -3.0630    0.4768 H         1 <0>         0.1006
     34 H8          3.0386    0.5184   -0.5131 H         1 <0>         0.0989
     35 H9          3.6271   -0.4945    0.8277 H         1 <0>         0.0967
     36 H10         3.4952   -1.2995   -2.1151 H         1 <0>         0.0681
     37 H11         4.9709   -0.9073   -1.1999 H         1 <0>         0.1153
     38 H12         1.0650    1.4851    0.0571 H         1 <0>         0.1361
     39 H13        -0.2913    0.4555   -0.4613 H         1 <0>         0.1337
     40 H14         0.5461    3.2106    1.9342 H         1 <0>         0.1920
     41 H15        -2.0501    0.0323   -0.6656 H         1 <0>         0.1273
     42 H16        -3.1485   -2.0349   -1.4136 H         1 <0>         0.1353
     43 H17        -4.1950   -2.9460    2.6415 H         1 <0>         0.1362
     44 H18        -3.0880   -0.8836    3.3904 H         1 <0>         0.1326
     45 H19        -4.9986   -4.4639    2.0928 H         1 <0>         0.1265
     46 H20        -6.1119   -6.5219    1.3330 H         1 <0>         0.1291
     47 H21        -6.1446   -7.0965   -1.0590 H         1 <0>         0.1281
     48 H22        -5.0723   -5.6140   -2.7036 H         1 <0>         0.1284
     49 H23        -3.9612   -3.5478   -1.9628 H         1 <0>         0.1249
     50 H24         3.4713   -4.7758    0.8640 H         1 <0>         0.0694
     51 H25         2.0187   -5.2752   -0.0354 H         1 <0>         0.0779
     52 H26         3.6112   -5.3037   -0.8301 H         1 <0>         0.0766
     53 N3          0.9654   -0.3967    1.0019 N.4       1 <0>        -0.5168
     54 H27         1.5939   -0.0807    1.7498 H         1 <0>         0.4289
     55 H28         0.2499   -1.0187    1.3961 H         1 <0>         0.4303
@<TRIPOS>BOND
     1    1    2 1
     2    1   29 1
     3    1   30 1
     4    1   31 1
     5    2    8 1
     6    2    3 1
     7    2   28 1
     8    3    4 1
     9    3   32 1
    10    3   33 1
    11    4    5 1
    12    4    6 1
    13    4   53 1
    14    6    7 1
    15    6   34 1
    16    6   35 1
    17    7    8 1
    18    7   36 1
    19    7   37 1
    20    9   10 1
    21    9   38 1
    22    9   39 1
    23    9   53 1
    24   10   15 1
    25   10   11 2
    26   11   12 1
    27   11   40 1
    28   12   13 1
    29   12   14 1
    30   14   15 2
    31   15   16 1
    32   16   21 ar
    33   16   17 ar
    34   17   18 ar
    35   17   41 1
    36   18   19 ar
    37   18   42 1
    38   19   20 ar
    39   19   22 1
    40   20   21 ar
    41   20   43 1
    42   21   44 1
    43   22   27 ar
    44   22   23 ar
    45   23   24 ar
    46   23   45 1
    47   24   25 ar
    48   24   46 1
    49   25   26 ar
    50   25   47 1
    51   26   27 ar
    52   26   48 1
    53   27   49 1
    54   28   50 1
    55   28   51 1
    56   28   52 1
    57   53   54 1
    58   53   55 1
@<TRIPOS>MOLECULE
ZINC36270674
   59    62     0     0     0
SMALL
USER_CHARGES

@<TRIPOS>ATOM
      1 C1          0.8721    1.8254   -1.7631 C.3       1 <0>        -0.1567
      2 C2          1.1370    0.3601   -2.1147 C.3       1 <0>         0.0536
      3 O1          0.5063   -0.4830   -1.1486 O.3       1 <0>        -0.3095
      4 C3          0.6453   -1.8244   -1.3160 C.ar      1 <0>         0.1537
      5 C4          1.3796   -2.3165   -2.3863 C.ar      1 <0>        -0.2086
      6 C5          1.5224   -3.6775   -2.5588 C.ar      1 <0>        -0.0717
      7 C6          0.9291   -4.5588   -1.6569 C.ar      1 <0>        -0.0836
      8 C7          0.1930   -4.0618   -0.5830 C.ar      1 <0>        -0.0399
      9 C8          0.0576   -2.6998   -0.4130 C.ar      1 <0>        -0.1479
     10 C9          1.0805   -6.0237   -1.8400 C.2       1 <0>         0.1604
     11 C10         0.9731   -6.6960   -3.0206 C.2       1 <0>        -0.1524
     12 N1          1.1812   -8.0192   -2.7494 N.pl3     1 <0>        -0.3087
     13 C11         1.1909   -9.1313   -3.5455 C.2       1 <0>        -0.0961
     14 C12         1.4290  -10.3556   -3.0151 C.2       1 <0>         0.2287
     15 C13         1.6690  -10.4937   -1.6333 C.2       1 <0>        -0.1294
     16 C14         1.6609   -9.3931   -0.8355 C.2       1 <0>        -0.0342
     17 C15         1.4121   -8.1267   -1.4032 C.2       1 <0>         0.2287
     18 N2          1.3524   -6.9128   -0.8726 N.2       1 <0>        -0.4642
     19 N3          1.4360  -11.4867   -3.8425 N.pl3     1 <0>        -0.8578
     20 C16         0.6795   -6.0940   -4.3705 C.3       1 <0>         0.0867
     21 N4         -0.7714   -5.9242   -4.5258 N.4       1 <0>        -0.3842
     22 C17        -1.4191   -7.2414   -4.5296 C.3       1 <0>        -0.0053
     23 C18        -2.9372   -7.0673   -4.6096 C.3       1 <0>        -0.1106
     24 H1         -3.2839   -6.4958   -3.7486 H         1 <0>         0.0949
     25 C19        -3.2925   -6.3184   -5.8972 C.3       1 <0>        -0.1279
     26 C20        -2.5528   -4.9777   -5.9170 C.3       1 <0>        -0.1114
     27 H2         -2.7569   -4.4632   -6.8560 H         1 <0>         0.1204
     28 C21        -1.0488   -5.2292   -5.7886 C.3       1 <0>        -0.0057
     29 C22        -3.0290   -4.1141   -4.7473 C.3       1 <0>        -0.1711
     30 C23        -3.6095   -8.4417   -4.6147 C.3       1 <0>        -0.1492
     31 H3         -0.2020    2.0110   -1.7649 H         1 <0>         0.0686
     32 H4          1.2764    2.0406   -0.7740 H         1 <0>         0.0702
     33 H5          1.3531    2.4686   -2.5000 H         1 <0>         0.0830
     34 H6          0.7327    0.1450   -3.1038 H         1 <0>         0.0635
     35 H7          2.2111    0.1745   -2.1129 H         1 <0>         0.0661
     36 H8          1.8391   -1.6330   -3.0849 H         1 <0>         0.1363
     37 H9          2.0932   -4.0598   -3.3922 H         1 <0>         0.1256
     38 H10        -0.2682   -4.7425    0.1173 H         1 <0>         0.1382
     39 H11        -0.5096   -2.3140    0.4212 H         1 <0>         0.1408
     40 H12         1.0071   -9.0332   -4.6052 H         1 <0>         0.1562
     41 H13         1.8580  -11.4693   -1.2102 H         1 <0>         0.1550
     42 H14         1.8434   -9.4880    0.2247 H         1 <0>         0.1670
     43 H15         1.2707  -11.3929   -4.7936 H         1 <0>         0.4055
     44 H16         1.6063  -12.3634   -3.4639 H         1 <0>         0.4135
     45 H17         1.1694   -5.1235   -4.4499 H         1 <0>         0.1487
     46 H18         1.0537   -6.7549   -5.1523 H         1 <0>         0.1312
     47 H19        -1.0735   -7.8133   -5.3908 H         1 <0>         0.1243
     48 H20        -1.1627   -7.7744   -3.6140 H         1 <0>         0.1222
     49 H21        -2.9919   -6.9133   -6.7597 H         1 <0>         0.0825
     50 H22        -4.3676   -6.1421   -5.9315 H         1 <0>         0.0955
     51 H23        -0.5191   -4.2767   -5.8025 H         1 <0>         0.1321
     52 H24        -0.7112   -5.8439   -6.6229 H         1 <0>         0.1295
     53 H25        -2.8232   -4.6284   -3.8085 H         1 <0>         0.0511
     54 H26        -2.5021   -3.1600   -4.7619 H         1 <0>         0.0739
     55 H27        -4.1010   -3.9386   -4.8380 H         1 <0>         0.0850
     56 H28        -3.3530   -8.9751   -3.6994 H         1 <0>         0.0657
     57 H29        -4.6908   -8.3170   -4.6717 H         1 <0>         0.0783
     58 H30        -3.2636   -9.0122   -5.4767 H         1 <0>         0.0659
     59 H31        -1.1293   -5.3779   -3.7567 H         1 <0>         0.4236
@<TRIPOS>BOND
     1    1    2 1
     2    1   31 1
     3    1   32 1
     4    1   33 1
     5    2    3 1
     6    2   34 1
     7    2   35 1
     8    3    4 1
     9    4    9 ar
    10    4    5 ar
    11    5    6 ar
    12    5   36 1
    13    6    7 ar
    14    6   37 1
    15    7    8 ar
    16    7   10 1
    17    8    9 ar
    18    8   38 1
    19    9   39 1
    20   10   18 1
    21   10   11 2
    22   11   12 1
    23   11   20 1
    24   12   17 1
    25   12   13 1
    26   13   14 2
    27   13   40 1
    28   14   15 1
    29   14   19 1
    30   15   16 2
    31   15   41 1
    32   16   17 1
    33   16   42 1
    34   17   18 2
    35   19   43 1
    36   19   44 1
    37   20   21 1
    38   20   45 1
    39   20   46 1
    40   21   28 1
    41   21   22 1
    42   21   59 1
    43   22   23 1
    44   22   47 1
    45   22   48 1
    46   23   24 1
    47   23   25 1
    48   23   30 1
    49   25   26 1
    50   25   49 1
    51   25   50 1
    52   26   27 1
    53   26   28 1
    54   26   29 1
    55   28   51 1
    56   28   52 1
    57   29   53 1
    58   29   54 1
    59   29   55 1
    60   30   56 1
    61   30   57 1
    62   30   58 1
@<TRIPOS>MOLECULE
ZINC45944531
   46    49     0     0     0
SMALL
USER_CHARGES

@<TRIPOS>ATOM
      1 C1         -0.4041    1.5366    0.1348 C.3       1 <0>        -0.1421
      2 C2         -0.3345    0.0317    0.0956 C.ar      1 <0>         0.1846
      3 C3         -0.4070   -0.6224   -1.1181 C.ar      1 <0>        -0.1722
      4 C4         -0.3424   -2.0089   -1.1483 C.ar      1 <0>         0.0430
      5 C5         -0.2066   -2.6898    0.0482 C.ar      1 <0>        -0.2011
      6 C6         -0.1398   -1.9663    1.2344 C.ar      1 <0>         0.4528
      7 N1         -0.1996   -0.6435    1.2211 N.ar      1 <0>        -0.5035
      8 N2         -0.0038   -2.6376    2.4440 N.pl3     1 <0>        -0.6998
      9 C7          0.0685   -4.1007    2.4656 C.3       1 <0>         0.2501
     10 H1          0.6084   -4.4509    1.5859 H         1 <0>         0.1202
     11 C8         -1.3257   -4.6727    2.4600 C.ar      1 <0>        -0.1231
     12 C9         -2.3221   -4.0723    3.2067 C.ar      1 <0>        -0.1026
     13 C10        -3.6010   -4.5970    3.2016 C.ar      1 <0>        -0.1171
     14 C11        -3.8836   -5.7217    2.4493 C.ar      1 <0>        -0.1011
     15 C12        -2.8875   -6.3216    1.7018 C.ar      1 <0>        -0.1121
     16 C13        -1.6096   -5.7944    1.7036 C.ar      1 <0>        -0.0903
     17 C14         0.7906   -4.5496    3.7099 C.ar      1 <0>        -0.1166
     18 C15         0.7583   -3.7480    4.8479 C.ar      1 <0>        -0.0999
     19 C16         1.4006   -4.1258    5.9889 C.ar      1 <0>        -0.0071
     20 C17         2.1063   -5.3408    6.0211 C.ar      1 <0>        -0.0844
     21 C18         2.7814   -5.7653    7.1808 C.ar      1 <0>        -0.0569
     22 C19         3.4463   -6.9577    7.1393 C.ar      1 <0>        -0.1515
     23 C20         3.4422   -7.7155    5.9702 C.ar      1 <0>         0.1471
     24 N3          2.8120   -7.3165    4.8922 N.ar      1 <0>        -0.4558
     25 C21         2.1428   -6.1604    4.8666 C.ar      1 <0>         0.1174
     26 C22         1.4617   -5.7389    3.7055 C.ar      1 <0>         0.1777
     27 O1          1.4775   -6.5099    2.5868 O.3       1 <0>        -0.4701
     28 Cl1         1.3477   -3.1106    7.3961 Cl        1 <0>        -0.0385
     29 H2          0.6014    1.9491    0.0515 H         1 <0>         0.1140
     30 H3         -1.0133    1.8939   -0.6955 H         1 <0>         0.1178
     31 H4         -0.8507    1.8552    1.0766 H         1 <0>         0.0941
     32 H5         -0.5134   -0.0612   -2.0347 H         1 <0>         0.1805
     33 H6         -0.3973   -2.5440   -2.0849 H         1 <0>         0.1759
     34 H7         -0.1536   -3.7684    0.0613 H         1 <0>         0.1773
     35 H8          0.0432   -2.1374    3.2737 H         1 <0>         0.4163
     36 H9         -2.1013   -3.1936    3.7945 H         1 <0>         0.1128
     37 H10        -4.3793   -4.1283    3.7856 H         1 <0>         0.1270
     38 H11        -4.8827   -6.1321    2.4458 H         1 <0>         0.1294
     39 H12        -3.1082   -7.2005    1.1143 H         1 <0>         0.1316
     40 H13        -0.8322   -6.2608    1.1167 H         1 <0>         0.1321
     41 H14         0.2171   -2.8137    4.8259 H         1 <0>         0.1318
     42 H15         2.7743   -5.1647    8.0784 H         1 <0>         0.1507
     43 H16         3.9749   -7.3125    8.0117 H         1 <0>         0.1519
     44 H17         3.9724   -8.6562    5.9515 H         1 <0>         0.1731
     45 H18         2.2129   -6.3196    1.9884 H         1 <0>         0.3981
     46 H19        -0.1468   -0.1591    2.0599 H         1 <0>         0.4382
@<TRIPOS>BOND
     1    1    2 1
     2    1   29 1
     3    1   30 1
     4    1   31 1
     5    2    7 ar
     6    2    3 ar
     7    3    4 ar
     8    3   32 1
     9    4    5 ar
    10    4   33 1
    11    5    6 ar
    12    5   34 1
    13    6    7 ar
    14    6    8 1
    15    7   46 1
    16    8    9 1
    17    8   35 1
    18    9   10 1
    19    9   11 1
    20    9   17 1
    21   11   16 ar
    22   11   12 ar
    23   12   13 ar
    24   12   36 1
    25   13   14 ar
    26   13   37 1
    27   14   15 ar
    28   14   38 1
    29   15   16 ar
    30   15   39 1
    31   16   40 1
    32   17   26 ar
    33   17   18 ar
    34   18   19 ar
    35   18   41 1
    36   19   20 ar
    37   19   28 1
    38   20   25 ar
    39   20   21 ar
    40   21   22 ar
    41   21   42 1
    42   22   23 ar
    43   22   43 1
    44   23   24 ar
    45   23   44 1
    46   24   25 ar
    47   25   26 ar
    48   26   27 1
    49   27   45 1
@<TRIPOS>MOLECULE
ZINC63490400
   48    50     0     0     0
SMALL
USER_CHARGES

@<TRIPOS>ATOM
      1 C1         -0.0187    1.5258    0.0104 C.3       1 <0>        -0.1573
      2 C2          0.0021   -0.0041    0.0020 C.3       1 <0>         0.0989
      3 H1         -1.0159   -0.3933    0.0222 H         1 <0>         0.1762
      4 C3          0.7290   -0.5088   -1.2244 C.2       1 <0>         0.0795
      5 C4          1.7851   -1.2197   -0.7679 C.ar      1 <0>        -0.1632
      6 C5          2.8584   -1.9536   -1.4490 C.ar      1 <0>        -0.0229
      7 C6          3.7978   -2.5826   -0.7051 C.ar      1 <0>        -0.0763
      8 C7          3.7709   -2.5504    0.6971 C.ar      1 <0>         0.0602
      9 C8          2.8168   -1.8971    1.3930 C.ar      1 <0>        -0.1951
     10 C9          1.7797   -1.2012    0.7124 C.ar      1 <0>         0.3364
     11 N1          0.7583   -0.5059    1.1548 N.pl3     1 <0>        -0.5802
     12 Cl1         5.0685   -3.4523   -1.5068 Cl        1 <0>        -0.0059
     13 C10         0.3524   -0.2686   -2.6637 C.3       1 <0>        -0.1089
     14 C11         1.3638   -0.9628   -3.5781 C.3       1 <0>         0.1123
     15 N2          0.9978   -0.7293   -4.9773 N.pl3     1 <0>        -0.6973
     16 C12         1.7509   -1.2493   -5.9667 C.2       1 <0>         0.5590
     17 S1          3.1353   -2.1828   -5.5883 S.2       1 <0>        -0.6207
     18 N3          1.4141   -1.0346   -7.2539 N.pl3     1 <0>        -0.6715
     19 C13         2.2327   -1.5998   -8.3293 C.3       1 <0>         0.1418
     20 C14         1.7890   -3.0377   -8.6061 C.3       1 <0>        -0.1261
     21 C15         2.6439   -3.6280   -9.7293 C.3       1 <0>        -0.1156
     22 C16         2.4717   -2.7882  -10.9965 C.3       1 <0>        -0.1255
     23 C17         2.9155   -1.3504  -10.7197 C.3       1 <0>        -0.1154
     24 C18         2.0605   -0.7600   -9.5966 C.3       1 <0>        -0.1277
     25 H2          1.0039    1.9031    0.0027 H         1 <0>         0.0838
     26 H3         -0.5459    1.8868   -0.8726 H         1 <0>         0.1067
     27 H4         -0.5289    1.8773    0.9072 H         1 <0>         0.0975
     28 H5          2.8976   -1.9914   -2.5276 H         1 <0>         0.1895
     29 H6          4.5452   -3.0700    1.2420 H         1 <0>         0.1710
     30 H7          2.8410   -1.9026    2.4727 H         1 <0>         0.1708
     31 H8         -0.6429   -0.6715   -2.8509 H         1 <0>         0.1328
     32 H9          0.3549    0.8024   -2.8661 H         1 <0>         0.1326
     33 H10         2.3592   -0.5600   -3.3909 H         1 <0>         0.0996
     34 H11         1.3613   -2.0338   -3.3758 H         1 <0>         0.0994
     35 H12         0.2134   -0.2005   -5.1917 H         1 <0>         0.4005
     36 H13         0.6297   -0.5057   -7.4683 H         1 <0>         0.3983
     37 H14         3.2807   -1.5944   -8.0295 H         1 <0>         0.1195
     38 H15         1.9116   -3.6360   -7.7033 H         1 <0>         0.0794
     39 H16         0.7410   -3.0431   -8.9060 H         1 <0>         0.0592
     40 H17         3.6918   -3.6226   -9.4294 H         1 <0>         0.0702
     41 H18         2.3277   -4.6523   -9.9265 H         1 <0>         0.0686
     42 H19         3.0807   -3.2088  -11.7967 H         1 <0>         0.0687
     43 H20         1.4237   -2.7936  -11.2964 H         1 <0>         0.0624
     44 H21         3.9634   -1.3449  -10.4199 H         1 <0>         0.0697
     45 H22         2.7928   -0.7521  -11.6226 H         1 <0>         0.0714
     46 H23         1.0126   -0.7655   -9.8965 H         1 <0>         0.0676
     47 H24         2.3767    0.2643   -9.3994 H         1 <0>         0.0694
     48 H25         0.5396   -0.3494    2.0868 H         1 <0>         0.4564
@<TRIPOS>BOND
     1    1    2 1
     2    1   25 1
     3    1   26 1
     4    1   27 1
     5    2    3 1
     6    2   11 1
     7    2    4 1
     8    4    5 2
     9    4   13 1
    10    5   10 ar
    11    5    6 ar
    12    6    7 ar
    13    6   28 1
    14    7    8 ar
    15    7   12 1
    16    8    9 ar
    17    8   29 1
    18    9   10 ar
    19    9   30 1
    20   10   11 2
    21   11   48 1
    22   13   14 1
    23   13   31 1
    24   13   32 1
    25   14   15 1
    26   14   33 1
    27   14   34 1
    28   15   16 1
    29   15   35 1
    30   16   17 2
    31   16   18 1
    32   18   19 1
    33   18   36 1
    34   19   24 1
    35   19   20 1
    36   19   37 1
    37   20   21 1
    38   20   38 1
    39   20   39 1
    40   21   22 1
    41   21   40 1
    42   21   41 1
    43   22   23 1
    44   22   42 1
    45   22   43 1
    46   23   24 1
    47   23   44 1
    48   23   45 1
    49   24   46 1
    50   24   47 1
@<TRIPOS>MOLECULE
ZINC11911216
   53    56     0     0     0
SMALL
USER_CHARGES
2-[[(3S)-3-[4-(2,4-difluorophenyl)-2H-pyrazol-3-yl]-1-piperidyl]methyl]-3-methoxy-phenol
@<TRIPOS>ATOM
      1 C1          5.0041    3.3020   -2.3214 C.3       1 <0>         0.0220
      2 O1          3.7081    2.7040   -2.3911 O.3       1 <0>        -0.3211
      3 C2          3.0996    2.4111   -1.2118 C.ar      1 <0>         0.1717
      4 C3          3.7373    2.6942   -0.0120 C.ar      1 <0>        -0.2123
      5 C4          3.1189    2.3971    1.1872 C.ar      1 <0>        -0.0267
      6 C5          1.8622    1.8222    1.1954 C.ar      1 <0>        -0.1759
      7 C6          1.2228    1.5324   -0.0014 C.ar      1 <0>         0.1712
      8 C7          1.8413    1.8297   -1.2062 C.ar      1 <0>        -0.2261
      9 C8          1.1464    1.5216   -2.5075 C.3       1 <0>         0.0650
     10 C9         -0.7607    2.9145   -1.9752 C.3       1 <0>        -0.0026
     11 C10        -1.4882    4.2074   -2.3510 C.3       1 <0>        -0.1444
     12 C11        -2.0304    4.0860   -3.7778 C.3       1 <0>        -0.1309
     13 C12        -0.8703    3.7928   -4.7331 C.3       1 <0>        -0.0398
     14 H1         -0.1655    4.6241   -4.7156 H         1 <0>         0.1152
     15 C13        -0.1607    2.5119   -4.2883 C.3       1 <0>         0.0001
     16 C14        -1.4030    3.6133   -6.1314 C.2       1 <0>         0.0963
     17 C15        -1.0732    4.3638   -7.2216 C.2       1 <0>        -0.1774
     18 C16        -1.7934    3.8566   -8.3204 C.2       1 <0>         0.0764
     19 N1         -2.5240    2.8575   -7.9010 N.2       1 <0>        -0.2632
     20 N2         -2.2966    2.6849   -6.5303 N.pl3     1 <0>        -0.4675
     21 H2         -2.7230    1.9929   -5.9477 H         1 <0>         0.4468
     22 C17        -0.1244    5.5059   -7.2462 C.ar      1 <0>        -0.0589
     23 C18        -0.5825    6.7884   -7.5375 C.ar      1 <0>        -0.0444
     24 C19         0.3016    7.8480   -7.5547 C.ar      1 <0>        -0.1556
     25 C20         1.6457    7.6369   -7.2931 C.ar      1 <0>         0.1376
     26 C21         2.1083    6.3632   -7.0079 C.ar      1 <0>        -0.1907
     27 C22         1.2293    5.2965   -6.9833 C.ar      1 <0>         0.1308
     28 F1          1.6806    4.0538   -6.7055 F         1 <0>        -0.1327
     29 F2          2.5077    8.6769   -7.3158 F         1 <0>        -0.1247
     30 O2         -0.0110    0.9628    0.0073 O.3       1 <0>        -0.4978
     31 H3          5.3752    3.4835   -3.3300 H         1 <0>         0.1125
     32 H4          4.9395    4.2472   -1.7824 H         1 <0>         0.0659
     33 H5          5.6860    2.6314   -1.7985 H         1 <0>         0.0674
     34 H6          4.7178    3.1469   -0.0158 H         1 <0>         0.1444
     35 H7          3.6168    2.6182    2.1197 H         1 <0>         0.1443
     36 H8          1.3791    1.5946    2.1342 H         1 <0>         0.1445
     37 H9          1.8903    1.3066   -3.2746 H         1 <0>         0.1369
     38 H10         0.4981    0.6552   -2.3770 H         1 <0>         0.1350
     39 H11        -1.4597    2.0792   -2.0171 H         1 <0>         0.1323
     40 H12        -0.3611    3.0031   -0.9650 H         1 <0>         0.1337
     41 H13        -0.7931    5.0452   -2.2960 H         1 <0>         0.0884
     42 H14        -2.3149    4.3744   -1.6605 H         1 <0>         0.1170
     43 H15        -2.5118    5.0207   -4.0653 H         1 <0>         0.1011
     44 H16        -2.7554    3.2734   -3.8250 H         1 <0>         0.0820
     45 H17         0.6747    2.3082   -4.9581 H         1 <0>         0.1362
     46 H18        -0.8627    1.6786   -4.3193 H         1 <0>         0.1289
     47 H19        -1.7527    4.2312   -9.3326 H         1 <0>         0.1942
     48 H20        -1.6291    6.9543   -7.7457 H         1 <0>         0.1481
     49 H21        -0.0543    8.8432   -7.7769 H         1 <0>         0.1498
     50 H22         3.1569    6.2029   -6.8049 H         1 <0>         0.1510
     51 H23         0.0021   -0.0041    0.0020 H         1 <0>         0.4073
     52 N3          0.3588    2.7025   -2.9174 N.4       1 <0>        -0.3878
     53 H24         0.9667    3.5298   -2.9038 H         1 <0>         0.4262
@<TRIPOS>BOND
     1    1    2 1
     2    1   31 1
     3    1   32 1
     4    1   33 1
     5    2    3 1
     6    3    8 ar
     7    3    4 ar
     8    4    5 ar
     9    4   34 1
    10    5    6 ar
    11    5   35 1
    12    6    7 ar
    13    6   36 1
    14    7    8 ar
    15    7   30 1
    16    8    9 1
    17    9   37 1
    18    9   38 1
    19    9   52 1
    20   10   11 1
    21   10   39 1
    22   10   40 1
    23   10   52 1
    24   11   12 1
    25   11   41 1
    26   11   42 1
    27   12   13 1
    28   12   43 1
    29   12   44 1
    30   13   14 1
    31   13   15 1
    32   13   16 1
    33   15   45 1
    34   15   46 1
    35   15   52 1
    36   16   20 1
    37   16   17 2
    38   17   18 1
    39   17   22 1
    40   18   19 2
    41   18   47 1
    42   19   20 1
    43   20   21 1
    44   22   27 ar
    45   22   23 ar
    46   23   24 ar
    47   23   48 1
    48   24   25 ar
    49   24   49 1
    50   25   26 ar
    51   25   29 1
    52   26   27 ar
    53   26   50 1
    54   27   28 1
    55   30   51 1
    56   52   53 1
@<TRIPOS>MOLECULE
ZINC38785403
   43    45     0     0     0
SMALL
USER_CHARGES

@<TRIPOS>ATOM
      1 C1         -0.0187    1.5258    0.0104 C.3       1 <0>        -0.1434
      2 C2          0.0021   -0.0041    0.0020 C.3       1 <0>        -0.0845
      3 C3         -1.4117   -0.5257    0.0127 C.ar      1 <0>         0.2459
      4 C4         -2.0644   -0.7710    1.2192 C.ar      1 <0>        -0.2166
      5 C5         -3.3842   -1.2578    1.1758 C.ar      1 <0>         0.4717
      6 N1         -3.9535   -1.4634   -0.0060 N.ar      1 <0>        -0.5998
      7 C6         -3.2934   -1.2157   -1.1282 C.ar      1 <0>         0.3279
      8 N2         -2.0512   -0.7515   -1.1232 N.ar      1 <0>        -0.5272
      9 S1         -4.0920   -1.5052   -2.6719 S.3       1 <0>         0.0998
     10 C7         -5.7365   -2.1142   -2.2079 C.3       1 <0>        -0.2027
     11 C8         -6.5344   -2.4045   -3.4529 C.2       1 <0>         0.4046
     12 O1         -6.0420   -2.2187   -4.5461 O.2       1 <0>        -0.3296
     13 C9         -7.9033   -2.9104   -3.3434 C.2       1 <0>         0.1862
     14 N3         -8.5639   -3.1522   -2.2460 N.pl3     1 <0>        -0.3911
     15 C10        -9.7998   -3.6097   -2.4565 C.2       1 <0>        -0.0408
     16 C11       -10.0914   -3.7205   -3.7579 C.2       1 <0>        -0.0442
     17 C12        -8.8428   -3.2534   -4.4839 C.3       1 <0>        -0.1359
     18 N4         -4.0766   -1.5181    2.3450 N.pl3     1 <0>        -0.8259
     19 C13        -1.3860   -0.5261    2.5146 C.ar      1 <0>        -0.0337
     20 C14        -0.2671   -1.2773    2.8712 C.ar      1 <0>        -0.0913
     21 C15         0.3605   -1.0454    4.0780 C.ar      1 <0>        -0.1025
     22 C16        -0.1194   -0.0691    4.9342 C.ar      1 <0>        -0.0287
     23 C17        -1.2302    0.6797    4.5848 C.ar      1 <0>        -0.1034
     24 C18        -1.8614    0.4600    3.3776 C.ar      1 <0>        -0.1002
     25 Cl1         0.6742    0.2169    6.4515 Cl        1 <0>        -0.0574
     26 H1          1.0039    1.9031    0.0027 H         1 <0>         0.0720
     27 H2         -0.5459    1.8868   -0.8726 H         1 <0>         0.0610
     28 H3         -0.5289    1.8773    0.9072 H         1 <0>         0.0565
     29 H4          0.5123   -0.3556   -0.8948 H         1 <0>         0.0938
     30 H5          0.5293   -0.3651    0.8851 H         1 <0>         0.0920
     31 H6         -5.6337   -3.0270   -1.6212 H         1 <0>         0.1442
     32 H7         -6.2504   -1.3573   -1.6153 H         1 <0>         0.1440
     33 H8        -10.4885   -3.8630   -1.6640 H         1 <0>         0.2171
     34 H9        -11.0165   -4.0640   -4.1967 H         1 <0>         0.2124
     35 H10        -9.0528   -2.3722   -5.0901 H         1 <0>         0.2042
     36 H11        -8.4309   -4.0558   -5.0961 H         1 <0>         0.2035
     37 H12        -3.6527   -1.3653    3.2040 H         1 <0>         0.4179
     38 H13        -4.9859   -1.8535    2.3057 H         1 <0>         0.4071
     39 H14         0.1076   -2.0396    2.2043 H         1 <0>         0.1342
     40 H15         1.2274   -1.6268    4.3552 H         1 <0>         0.1404
     41 H16        -1.6008    1.4400    5.2564 H         1 <0>         0.1392
     42 H17        -2.7252    1.0478    3.1040 H         1 <0>         0.1307
     43 H18        -8.1924   -3.0133   -1.3608 H         1 <0>         0.4523
@<TRIPOS>BOND
     1    1    2 1
     2    1   26 1
     3    1   27 1
     4    1   28 1
     5    2    3 1
     6    2   29 1
     7    2   30 1
     8    3    8 ar
     9    3    4 ar
    10    4    5 ar
    11    4   19 1
    12    5    6 ar
    13    5   18 1
    14    6    7 ar
    15    7    8 ar
    16    7    9 1
    17    9   10 1
    18   10   11 1
    19   10   31 1
    20   10   32 1
    21   11   12 2
    22   11   13 1
    23   13   17 1
    24   13   14 2
    25   14   15 1
    26   14   43 1
    27   15   16 2
    28   15   33 1
    29   16   17 1
    30   16   34 1
    31   17   35 1
    32   17   36 1
    33   18   37 1
    34   18   38 1
    35   19   24 ar
    36   19   20 ar
    37   20   21 ar
    38   20   39 1
    39   21   22 ar
    40   21   40 1
    41   22   23 ar
    42   22   25 1
    43   23   24 ar
    44   23   41 1
    45   24   42 1
@<TRIPOS>MOLECULE
ZINC51184416
   58    61     0     0     0
SMALL
USER_CHARGES

@<TRIPOS>ATOM
      1 C1          2.5352   -4.3392    1.7960 C.ar      1 <0>        -0.1111
      2 C2          2.6254   -3.1709    2.5299 C.ar      1 <0>        -0.1195
      3 C3          3.0185   -2.0023    1.9115 C.ar      1 <0>        -0.1213
      4 C4          3.3262   -1.9893    0.5570 C.ar      1 <0>        -0.0825
      5 C5          3.2414   -3.1536   -0.1726 C.ar      1 <0>        -0.0673
      6 C6          2.8418   -4.3287    0.4512 C.ar      1 <0>        -0.1185
      7 C7          3.5752   -3.2168   -1.6401 C.3       1 <0>        -0.0862
      8 C8          3.5693   -1.8180   -2.2532 C.3       1 <0>        -0.1206
      9 C9          4.4491   -0.9071   -1.3891 C.3       1 <0>        -0.1157
     10 C10         3.7408   -0.6771   -0.0556 C.3       1 <0>        -0.0554
     11 H1          2.8562   -0.0617   -0.2198 H         1 <0>         0.0908
     12 C11         4.6890    0.0490    0.9008 C.3       1 <0>         0.1196
     13 N1          5.0250    1.3643    0.3502 N.am      1 <0>        -0.7008
     14 C12         5.9327    2.1431    0.9717 C.2       1 <0>         0.4999
     15 O1          6.4712    1.7550    1.9866 O.2       1 <0>        -0.5259
     16 C13         6.2783    3.4962    0.4053 C.3       1 <0>        -0.0320
     17 N2          7.2842    4.1420    1.2592 N.4       1 <0>        -0.3654
     18 C14         6.7060    4.4003    2.5840 C.3       1 <0>        -0.0324
     19 C15         7.7867    4.9682    3.5099 C.3       1 <0>         0.1238
     20 N3          8.3792    6.1503    2.8651 N.pl3     1 <0>        -0.6712
     21 C16         8.8381    6.0237    1.4731 C.3       1 <0>         0.1251
     22 C17         7.7077    5.4059    0.6433 C.3       1 <0>        -0.0230
     23 C18         8.5032    7.3609    3.5564 C.ar      1 <0>         0.1212
     24 C19         9.6533    7.6322    4.2832 C.ar      1 <0>        -0.1029
     25 C20         9.7735    8.8287    4.9647 C.ar      1 <0>        -0.1161
     26 C21         8.7498    9.7571    4.9242 C.ar      1 <0>        -0.0927
     27 C22         7.6005    9.4935    4.2019 C.ar      1 <0>        -0.1371
     28 C23         7.4743    8.2992    3.5119 C.ar      1 <0>         0.1000
     29 O2          6.3466    8.0409    2.7967 O.3       1 <0>        -0.4947
     30 H2          2.2301   -5.2578    2.2751 H         1 <0>         0.1260
     31 H3          2.3886   -3.1732    3.5836 H         1 <0>         0.1247
     32 H4          3.0872   -1.0897    2.4851 H         1 <0>         0.1200
     33 H5          2.7703   -5.2415   -0.1215 H         1 <0>         0.1248
     34 H6          4.5632   -3.6599   -1.7652 H         1 <0>         0.0789
     35 H7          2.8371   -3.8359   -2.1502 H         1 <0>         0.0795
     36 H8          3.9685   -1.8598   -3.2667 H         1 <0>         0.0735
     37 H9          2.5506   -1.4311   -2.2751 H         1 <0>         0.0687
     38 H10         5.4130   -1.3852   -1.2150 H         1 <0>         0.0709
     39 H11         4.5980    0.0469   -1.8949 H         1 <0>         0.0645
     40 H12         4.2036    0.1734    1.8688 H         1 <0>         0.0831
     41 H13         5.5999   -0.5369    1.0237 H         1 <0>         0.0851
     42 H14         4.5943    1.6748   -0.4615 H         1 <0>         0.4107
     43 H15         6.6787    3.3772   -0.6015 H         1 <0>         0.1601
     44 H16         5.3815    4.1147    0.3689 H         1 <0>         0.1585
     45 H17         5.8921    5.1193    2.4914 H         1 <0>         0.1260
     46 H18         6.3228    3.4690    3.0011 H         1 <0>         0.1514
     47 H19         7.3396    5.2556    4.4616 H         1 <0>         0.1127
     48 H20         8.5583    4.2166    3.6765 H         1 <0>         0.0809
     49 H21         9.0861    7.0089    1.0782 H         1 <0>         0.1164
     50 H22         9.7158    5.3786    1.4341 H         1 <0>         0.0781
     51 H23         8.0626    5.2157   -0.3696 H         1 <0>         0.1368
     52 H24         6.8635    6.0945    0.6095 H         1 <0>         0.1370
     53 H25        10.4543    6.9086    4.3167 H         1 <0>         0.1293
     54 H26        10.6692    9.0387    5.5304 H         1 <0>         0.1330
     55 H27         8.8479   10.6905    5.4585 H         1 <0>         0.1342
     56 H28         6.8027   10.2209    4.1723 H         1 <0>         0.1343
     57 H29         5.6528    7.5969    3.3032 H         1 <0>         0.3848
     58 H30         8.0824    3.5325    1.3563 H         1 <0>         0.4280
@<TRIPOS>BOND
     1    1    6 ar
     2    1    2 ar
     3    1   30 1
     4    2    3 ar
     5    2   31 1
     6    3    4 ar
     7    3   32 1
     8    4   10 1
     9    4    5 ar
    10    5    6 ar
    11    5    7 1
    12    6   33 1
    13    7    8 1
    14    7   34 1
    15    7   35 1
    16    8    9 1
    17    8   36 1
    18    8   37 1
    19    9   10 1
    20    9   38 1
    21    9   39 1
    22   10   11 1
    23   10   12 1
    24   12   13 1
    25   12   40 1
    26   12   41 1
    27   13   14 am
    28   13   42 1
    29   14   15 2
    30   14   16 1
    31   16   17 1
    32   16   43 1
    33   16   44 1
    34   17   22 1
    35   17   18 1
    36   17   58 1
    37   18   19 1
    38   18   45 1
    39   18   46 1
    40   19   20 1
    41   19   47 1
    42   19   48 1
    43   20   21 1
    44   20   23 1
    45   21   22 1
    46   21   49 1
    47   21   50 1
    48   22   51 1
    49   22   52 1
    50   23   28 ar
    51   23   24 ar
    52   24   25 ar
    53   24   53 1
    54   25   26 ar
    55   25   54 1
    56   26   27 ar
    57   26   55 1
    58   27   28 ar
    59   27   56 1
    60   28   29 1
    61   29   57 1
@<TRIPOS>MOLECULE
ZINC59810730
   61    63     0     0     0
SMALL
USER_CHARGES

@<TRIPOS>ATOM
      1 C1          0.0405    1.5077   -0.0722 C.3       1 <0>        -0.1267
      2 C2          0.0500    0.0007   -0.0636 C.ar      1 <0>        -0.0649
      3 C3          0.0498   -0.6973   -1.2570 C.ar      1 <0>        -0.0957
      4 C4          0.0585   -2.0794   -1.2492 C.ar      1 <0>        -0.0959
      5 C5          0.0679   -2.7638   -0.0479 C.ar      1 <0>        -0.1325
      6 C6          0.0690   -2.0660    1.1451 C.ar      1 <0>        -0.1328
      7 C7          0.0646   -0.6834    1.1372 C.ar      1 <0>        -0.0919
      8 C8          0.0788   -2.8120    2.4544 C.3       1 <0>         0.0779
      9 H1          0.4163   -2.1595    3.2596 H         1 <0>         0.1493
     10 C9         -1.3320   -3.3698    2.7678 C.3       1 <0>        -0.1302
     11 C10        -0.9979   -4.5542    3.7125 C.3       1 <0>        -0.1416
     12 C11         0.3253   -5.0980    3.1338 C.3       1 <0>        -0.0058
     13 N1          0.9469   -4.0051    2.3606 N.4       1 <0>        -0.3776
     14 C12         2.2725   -3.6966    2.9134 C.3       1 <0>        -0.0268
     15 C13         3.1901   -4.8737    2.7047 C.2       1 <0>         0.5026
     16 O1          2.7802   -5.8713    2.1501 O.2       1 <0>        -0.5154
     17 N2          4.4663   -4.8178    3.1345 N.am      1 <0>        -0.6316
     18 C14         5.2872   -5.9378    3.0265 C.ar      1 <0>         0.1854
     19 C15         5.1624   -6.7921    1.9391 C.ar      1 <0>        -0.1259
     20 C16         5.9765   -7.9017    1.8343 C.ar      1 <0>        -0.0696
     21 C17         6.9229   -8.1718    2.8098 C.ar      1 <0>        -0.1251
     22 C18         7.0613   -7.3348    3.8957 C.ar      1 <0>        -0.0662
     23 C19         6.2481   -6.2051    4.0128 C.ar      1 <0>        -0.1588
     24 C20         6.3953   -5.3016    5.1696 C.2       1 <0>         0.5670
     25 O2          5.6199   -4.3774    5.3217 O.2       1 <0>        -0.5556
     26 N3          7.3892   -5.5005    6.0579 N.am      1 <0>        -0.7156
     27 C21         7.5354   -4.6032    7.2067 C.3       1 <0>         0.1215
     28 C22         8.7315   -5.0468    8.0514 C.3       1 <0>        -0.1101
     29 C23        10.0183   -4.8795    7.2408 C.3       1 <0>        -0.1522
     30 C24         8.8096   -4.1882    9.3153 C.3       1 <0>        -0.1474
     31 H2          1.0658    1.8774   -0.0831 H         1 <0>         0.0803
     32 H3         -0.4832    1.8627   -0.9598 H         1 <0>         0.0763
     33 H4         -0.4679    1.8729    0.8201 H         1 <0>         0.0740
     34 H5          0.0425   -0.1627   -2.1954 H         1 <0>         0.1360
     35 H6          0.0577   -2.6247   -2.1814 H         1 <0>         0.1365
     36 H7          0.0740   -3.8438   -0.0418 H         1 <0>         0.1194
     37 H8          0.0693   -0.1381    2.0694 H         1 <0>         0.1344
     38 H9         -1.9424   -2.6242    3.2772 H         1 <0>         0.1214
     39 H10        -1.8235   -3.7208    1.8604 H         1 <0>         0.1021
     40 H11        -0.8561   -4.2036    4.7348 H         1 <0>         0.1008
     41 H12        -1.7785   -5.3137    3.6692 H         1 <0>         0.1163
     42 H13         0.9882   -5.4001    3.9446 H         1 <0>         0.1277
     43 H14         0.1232   -5.9473    2.4811 H         1 <0>         0.1380
     44 H15         2.6825   -2.8222    2.4080 H         1 <0>         0.1603
     45 H16         2.1824   -3.4908    3.9800 H         1 <0>         0.1652
     46 H17         4.8131   -3.9975    3.5190 H         1 <0>         0.4302
     47 H18         4.4271   -6.5884    1.1747 H         1 <0>         0.1460
     48 H19         5.8751   -8.5637    0.9870 H         1 <0>         0.1385
     49 H20         7.5549   -9.0428    2.7187 H         1 <0>         0.1390
     50 H21         7.8002   -7.5500    4.6534 H         1 <0>         0.1347
     51 H22         8.0078   -6.2378    5.9366 H         1 <0>         0.4040
     52 H23         7.6974   -3.5847    6.8539 H         1 <0>         0.0736
     53 H24         6.6299   -4.6381    7.8125 H         1 <0>         0.0723
     54 H25         8.6112   -6.0937    8.3301 H         1 <0>         0.0786
     55 H26        10.1386   -3.8326    6.9621 H         1 <0>         0.0596
     56 H27        10.8704   -5.1955    7.8425 H         1 <0>         0.0636
     57 H28         9.9626   -5.4911    6.3403 H         1 <0>         0.0523
     58 H29         7.8929   -4.3075    9.8928 H         1 <0>         0.0591
     59 H30         9.6618   -4.5043    9.9171 H         1 <0>         0.0651
     60 H31         8.9299   -3.1414    9.0366 H         1 <0>         0.0599
     61 H32         1.0393   -4.2827    1.3949 H         1 <0>         0.4272
@<TRIPOS>BOND
     1    1    2 1
     2    1   31 1
     3    1   32 1
     4    1   33 1
     5    2    7 ar
     6    2    3 ar
     7    3    4 ar
     8    3   34 1
     9    4    5 ar
    10    4   35 1
    11    5    6 ar
    12    5   36 1
    13    6    7 ar
    14    6    8 1
    15    7   37 1
    16    8    9 1
    17    8   13 1
    18    8   10 1
    19   10   11 1
    20   10   38 1
    21   10   39 1
    22   11   12 1
    23   11   40 1
    24   11   41 1
    25   12   13 1
    26   12   42 1
    27   12   43 1
    28   13   14 1
    29   13   61 1
    30   14   15 1
    31   14   44 1
    32   14   45 1
    33   15   16 2
    34   15   17 am
    35   17   18 1
    36   17   46 1
    37   18   23 ar
    38   18   19 ar
    39   19   20 ar
    40   19   47 1
    41   20   21 ar
    42   20   48 1
    43   21   22 ar
    44   21   49 1
    45   22   23 ar
    46   22   50 1
    47   23   24 1
    48   24   25 2
    49   24   26 am
    50   26   27 1
    51   26   51 1
    52   27   28 1
    53   27   52 1
    54   27   53 1
    55   28   29 1
    56   28   30 1
    57   28   54 1
    58   29   55 1
    59   29   56 1
    60   29   57 1
    61   30   58 1
    62   30   59 1
    63   30   60 1
@<TRIPOS>MOLECULE
ZINC66902553
   67    69     0     0     0
SMALL
USER_CHARGES

@<TRIPOS>ATOM
      1 C1         -0.0187    1.5258    0.0104 C.3       1 <0>        -0.1227
      2 C2          1.4167    2.0553   -0.0004 C.3       1 <0>        -0.1206
      3 C3          2.1328    1.5619   -1.2592 C.3       1 <0>        -0.1157
      4 C4          2.1536    0.0321   -1.2676 C.3       1 <0>        -0.0720
      5 C5          0.7182   -0.4975   -1.2568 C.3       1 <0>        -0.1173
      6 C6          0.0021   -0.0041    0.0020 C.3       1 <0>        -0.1190
      7 C7          2.8697   -0.4613   -2.5264 C.3       1 <0>        -0.1391
      8 C8          2.9988   -1.9619   -2.4754 C.2       1 <0>         0.5188
      9 O1          2.5611   -2.5762   -1.5257 O.2       1 <0>        -0.5218
     10 N1          3.6006   -2.6213   -3.4851 N.am      1 <0>        -0.7350
     11 C9          3.7261   -4.0800   -3.4354 C.3       1 <0>         0.1347
     12 C10         2.4492   -4.7228   -3.9846 C.3       1 <0>        -0.1600
     13 C11         2.6179   -6.2436   -4.0040 C.3       1 <0>        -0.0017
     14 N2          3.7553   -6.6025   -4.8597 N.4       1 <0>        -0.3844
     15 C12         4.9941   -6.0493   -4.2995 C.3       1 <0>        -0.0082
     16 C13         4.9168   -4.5210   -4.2916 C.3       1 <0>        -0.1545
     17 C14         3.8652   -8.0653   -4.9374 C.3       1 <0>         0.0061
     18 C15         4.9704   -8.4418   -5.9262 C.3       1 <0>        -0.1744
     19 C16         5.0832   -9.9425   -6.0059 C.2       1 <0>         0.5184
     20 O2          4.3517  -10.6420   -5.3377 O.2       1 <0>        -0.5301
     21 N3          5.9970  -10.5073   -6.8199 N.am      1 <0>        -0.7168
     22 C17         6.1066  -11.9661   -6.8974 C.3       1 <0>         0.1430
     23 C18         7.0129  -12.4699   -5.7723 C.3       1 <0>        -0.1275
     24 C19         7.1274  -13.9935   -5.8532 C.3       1 <0>        -0.1194
     25 C20         7.7249  -14.3889   -7.2051 C.3       1 <0>        -0.1251
     26 C21         6.8186  -13.8851   -8.3302 C.3       1 <0>        -0.1182
     27 C22         6.7041  -12.3615   -8.2493 C.3       1 <0>        -0.1268
     28 H1         -0.5289    1.8773    0.9072 H         1 <0>         0.0626
     29 H2         -0.5459    1.8868   -0.8726 H         1 <0>         0.0610
     30 H3          1.4019    3.1452    0.0056 H         1 <0>         0.0644
     31 H4          1.9439    1.6943    0.8826 H         1 <0>         0.0626
     32 H5          1.6057    1.9230   -2.1423 H         1 <0>         0.0634
     33 H6          3.1554    1.9392   -1.2670 H         1 <0>         0.0627
     34 H7          2.6808   -0.3290   -0.3846 H         1 <0>         0.0787
     35 H8          0.1910   -0.1364   -2.1398 H         1 <0>         0.0546
     36 H9          0.7330   -1.5874   -1.2628 H         1 <0>         0.0754
     37 H10         0.5293   -0.3651    0.8851 H         1 <0>         0.0619
     38 H11        -1.0205   -0.3814    0.0098 H         1 <0>         0.0607
     39 H12         2.2945   -0.1759   -3.4072 H         1 <0>         0.0969
     40 H13         3.8618   -0.0129   -2.5794 H         1 <0>         0.0976
     41 H14         3.9507   -2.1299   -4.2447 H         1 <0>         0.4063
     42 H15         3.8811   -4.3977   -2.4043 H         1 <0>         0.1052
     43 H16         1.6054   -4.4583   -3.3474 H         1 <0>         0.1181
     44 H17         2.2677   -4.3638   -4.9977 H         1 <0>         0.0906
     45 H18         2.7992   -6.6015   -2.9905 H         1 <0>         0.1337
     46 H19         1.7105   -6.7044   -4.3943 H         1 <0>         0.1363
     47 H20         5.1246   -6.4113   -3.2798 H         1 <0>         0.1348
     48 H21         5.8409   -6.3666   -4.9080 H         1 <0>         0.1357
     49 H22         4.7865   -4.1579   -5.3110 H         1 <0>         0.0947
     50 H23         5.8368   -4.1123   -3.8737 H         1 <0>         0.1197
     51 H24         4.1075   -8.4643   -3.9524 H         1 <0>         0.1401
     52 H25         2.9171   -8.4835   -5.2756 H         1 <0>         0.1417
     53 H26         4.7280   -8.0429   -6.9112 H         1 <0>         0.1174
     54 H27         5.9185   -8.0237   -5.5880 H         1 <0>         0.1163
     55 H28         6.5820   -9.9479   -7.3543 H         1 <0>         0.4035
     56 H29         5.1170  -12.4109   -6.7935 H         1 <0>         0.0928
     57 H30         8.0025  -12.0252   -5.8762 H         1 <0>         0.0650
     58 H31         6.5872  -12.1882   -4.8092 H         1 <0>         0.0654
     59 H32         7.7730  -14.3524   -5.0517 H         1 <0>         0.0691
     60 H33         6.1377  -14.4383   -5.7493 H         1 <0>         0.0662
     61 H34         8.7146  -13.9441   -7.3090 H         1 <0>         0.0643
     62 H35         7.8065  -15.4743   -7.2628 H         1 <0>         0.0690
     63 H36         7.2443  -14.1668   -9.2933 H         1 <0>         0.0721
     64 H37         5.8290  -14.3299   -8.2263 H         1 <0>         0.0670
     65 H38         6.0585  -12.0026   -9.0508 H         1 <0>         0.0697
     66 H39         7.6938  -11.9168   -8.3531 H         1 <0>         0.0701
     67 H40         3.6095   -6.2285   -5.7854 H         1 <0>         0.4221
@<TRIPOS>BOND
     1    1    6 1
     2    1    2 1
     3    1   28 1
     4    1   29 1
     5    2    3 1
     6    2   30 1
     7    2   31 1
     8    3    4 1
     9    3   32 1
    10    3   33 1
    11    4    5 1
    12    4    7 1
    13    4   34 1
    14    5    6 1
    15    5   35 1
    16    5   36 1
    17    6   37 1
    18    6   38 1
    19    7    8 1
    20    7   39 1
    21    7   40 1
    22    8    9 2
    23    8   10 am
    24   10   11 1
    25   10   41 1
    26   11   16 1
    27   11   12 1
    28   11   42 1
    29   12   13 1
    30   12   43 1
    31   12   44 1
    32   13   14 1
    33   13   45 1
    34   13   46 1
    35   14   15 1
    36   14   17 1
    37   14   67 1
    38   15   16 1
    39   15   47 1
    40   15   48 1
    41   16   49 1
    42   16   50 1
    43   17   18 1
    44   17   51 1
    45   17   52 1
    46   18   19 1
    47   18   53 1
    48   18   54 1
    49   19   20 2
    50   19   21 am
    51   21   22 1
    52   21   55 1
    53   22   27 1
    54   22   23 1
    55   22   56 1
    56   23   24 1
    57   23   57 1
    58   23   58 1
    59   24   25 1
    60   24   59 1
    61   24   60 1
    62   25   26 1
    63   25   61 1
    64   25   62 1
    65   26   27 1
    66   26   63 1
    67   26   64 1
    68   27   65 1
    69   27   66 1
@<TRIPOS>MOLECULE
ZINC19330395
   54    57     0     0     0
SMALL
USER_CHARGES
(4-aminophenyl)-dipropyl-BLAHone
@<TRIPOS>ATOM
      1 C1          2.5317   -2.0973    6.4100 C.3       1 <0>        -0.1551
      2 C2          2.5254   -2.6100    4.9685 C.3       1 <0>        -0.1333
      3 C3          1.2582   -2.1264    4.2606 C.3       1 <0>        -0.0951
      4 C4          1.2520   -2.6392    2.8191 C.3       1 <0>        -0.1395
      5 C5         -0.0049   -2.1796    2.0609 C.3       1 <0>         0.0003
      6 N1          0.0410   -2.6982    0.6873 N.4       1 <0>        -0.4247
      7 C6          0.0078   -4.1661    0.6512 C.3       1 <0>         0.0023
      8 C7          1.2674   -4.7229    1.3363 C.3       1 <0>        -0.1444
      9 C8          1.2709   -4.1618    2.7534 C.2       1 <0>         0.3528
     10 O1          1.2806   -4.8619    3.7373 O.2       1 <0>        -0.3803
     11 C9          2.4982   -4.1387    0.6252 C.3       1 <0>         0.0473
     12 N2          2.4323   -2.6720    0.6647 N.3       1 <0>        -0.5021
     13 C10         2.4920   -2.1536    2.0377 C.3       1 <0>         0.0435
     14 C11         1.2245   -2.1876   -0.0214 C.3       1 <0>         0.2630
     15 C12         1.2080   -0.6807   -0.0131 C.ar      1 <0>        -0.2132
     16 C13         0.0021   -0.0041    0.0020 C.ar      1 <0>        -0.0701
     17 C14        -0.0167    1.3768    0.0096 C.ar      1 <0>        -0.1962
     18 C15         1.1777    2.0861    0.0020 C.ar      1 <0>         0.2593
     19 C16         2.3873    1.4033   -0.0123 C.ar      1 <0>        -0.2009
     20 C17         2.3988    0.0223   -0.0203 C.ar      1 <0>        -0.0175
     21 N3          1.1624    3.4827    0.0097 N.pl3     1 <0>        -0.8860
     22 C18         1.2846   -6.2528    1.3243 C.3       1 <0>        -0.0973
     23 C19         0.0417   -6.7824    2.0424 C.3       1 <0>        -0.1362
     24 C20         0.0588   -8.3122    2.0304 C.3       1 <0>        -0.1562
     25 H1          3.4428   -2.4451    6.9189 H         1 <0>         0.0620
     26 H2          1.6470   -2.4807    6.9394 H         1 <0>         0.0578
     27 H3          2.5098   -0.9975    6.4081 H         1 <0>         0.0569
     28 H4          3.4101   -2.2266    4.4391 H         1 <0>         0.0642
     29 H5          2.5473   -3.7098    4.9704 H         1 <0>         0.0777
     30 H6          0.3735   -2.5098    4.7900 H         1 <0>         0.0810
     31 H7          1.2363   -1.0266    4.2586 H         1 <0>         0.0849
     32 H8         -0.9012   -2.5636    2.5701 H         1 <0>         0.1317
     33 H9         -0.0384   -1.0803    2.0389 H         1 <0>         0.1497
     34 H10        -0.8872   -4.5257    1.1800 H         1 <0>         0.1366
     35 H11        -0.0225   -4.5066   -0.3943 H         1 <0>         0.1469
     36 H12         3.4119   -4.4797    1.1341 H         1 <0>         0.1148
     37 H13         2.5128   -4.4782   -0.4210 H         1 <0>         0.1164
     38 H14         2.5045   -1.0539    2.0165 H         1 <0>         0.1199
     39 H15         3.4037   -2.5212    2.5314 H         1 <0>         0.1132
     40 H16         1.2188   -2.5646   -1.0548 H         1 <0>         0.1583
     41 H17        -0.9261   -0.5561    0.0076 H         1 <0>         0.1122
     42 H18        -0.9588    1.9047    0.0170 H         1 <0>         0.1298
     43 H19         3.3177    1.9517   -0.0179 H         1 <0>         0.1310
     44 H20         3.3389   -0.5092   -0.0317 H         1 <0>         0.1401
     45 H21         2.1089    4.0431    0.0037 H         1 <0>         0.4283
     46 H22         0.2038    4.0222    0.0218 H         1 <0>         0.4266
     47 H23         1.2879   -6.6113    0.2844 H         1 <0>         0.0872
     48 H24         2.1872   -6.6134    1.8393 H         1 <0>         0.0900
     49 H25         0.0384   -6.4239    3.0823 H         1 <0>         0.0790
     50 H26        -0.8609   -6.4217    1.5274 H         1 <0>         0.0568
     51 H27        -0.8348   -8.6929    2.5467 H         1 <0>         0.0612
     52 H28         0.9614   -8.6728    2.5454 H         1 <0>         0.0603
     53 H29         0.0621   -8.6707    0.9905 H         1 <0>         0.0578
     54 H30        -0.8626   -2.3393    0.1728 H         1 <0>         0.4473
@<TRIPOS>BOND
     1    1    2 1
     2    1   25 1
     3    1   26 1
     4    1   27 1
     5    2    3 1
     6    2   28 1
     7    2   29 1
     8    3    4 1
     9    3   30 1
    10    3   31 1
    11    4    9 1
    12    4   13 1
    13    4    5 1
    14    5    6 1
    15    5   32 1
    16    5   33 1
    17    6   14 1
    18    6    7 1
    19    6   54 1
    20    7    8 1
    21    7   34 1
    22    7   35 1
    23    8    9 1
    24    8   11 1
    25    8   22 1
    26    9   10 2
    27   11   12 1
    28   11   36 1
    29   11   37 1
    30   12   13 1
    31   12   14 1
    32   13   38 1
    33   13   39 1
    34   14   15 1
    35   14   40 1
    36   15   20 ar
    37   15   16 ar
    38   16   17 ar
    39   16   41 1
    40   17   18 ar
    41   17   42 1
    42   18   19 ar
    43   18   21 1
    44   19   20 ar
    45   19   43 1
    46   20   44 1
    47   21   45 1
    48   21   46 1
    49   22   23 1
    50   22   47 1
    51   22   48 1
    52   23   24 1
    53   23   49 1
    54   23   50 1
    55   24   51 1
    56   24   52 1
    57   24   53 1
@<TRIPOS>MOLECULE
ZINC35691614
   46    48     0     0     0
SMALL
USER_CHARGES

@<TRIPOS>ATOM
      1 C1         -0.0187    1.5258    0.0104 C.3       1 <0>        -0.1985
      2 C2          0.0021   -0.0041    0.0020 C.3       1 <0>         0.1379
      3 H1         -1.0205   -0.3814    0.0098 H         1 <0>         0.1052
      4 C3          0.7182   -0.4975   -1.2568 C.3       1 <0>         0.0178
      5 H2          1.7407   -0.1200   -1.2641 H         1 <0>         0.1493
      6 C4          0.7400   -2.0275   -1.2639 C.3       1 <0>        -0.1438
      7 C5          1.4578   -2.5165   -2.5251 C.3       1 <0>        -0.1375
      8 C6          0.7538   -1.9404   -3.7571 C.3       1 <0>        -0.1488
      9 C7          0.7315   -0.4136   -3.6576 C.3       1 <0>        -0.0059
     10 N1          0.0087   -0.0097   -2.4456 N.4       1 <0>        -0.5030
     11 N2          0.7106   -0.4894    1.1889 N.pl3     1 <0>        -1.1094
     12 S1         -0.1388   -0.9023    2.5492 S.o2      1 <0>         2.6913
     13 O1          0.8143   -1.3537    3.5016 O.2       1 <0>        -0.9380
     14 O2         -1.0297    0.1727    2.8136 O.2       1 <0>        -0.9414
     15 C8         -1.1374   -2.2943    2.1373 C.ar      1 <0>        -0.6841
     16 C9         -2.4136   -2.1073    1.6396 C.ar      1 <0>        -0.0315
     17 C10        -3.1946   -3.1997    1.3174 C.ar      1 <0>        -0.1263
     18 C11        -2.7036   -4.4831    1.4913 C.ar      1 <0>        -0.0313
     19 C12        -1.4278   -4.6700    1.9889 C.ar      1 <0>        -0.1103
     20 C13        -0.6440   -3.5731    2.3060 C.ar      1 <0>        -0.0059
     21 C14        -1.1282   -6.1506    2.0856 C.3       1 <0>        -0.0879
     22 C15        -2.5035   -6.8469    2.0092 C.3       1 <0>        -0.1235
     23 C16        -3.3486   -5.8252    1.2193 C.3       1 <0>        -0.0959
     24 H3          1.0039    1.9031    0.0027 H         1 <0>         0.0830
     25 H4         -0.5459    1.8868   -0.8726 H         1 <0>         0.0662
     26 H5         -0.5289    1.8773    0.9072 H         1 <0>         0.1035
     27 H6          1.2684   -2.3881   -0.3814 H         1 <0>         0.1141
     28 H7         -0.2821   -2.4061   -1.2568 H         1 <0>         0.0911
     29 H8          2.4947   -2.1810   -2.5077 H         1 <0>         0.0841
     30 H9          1.4264   -3.6054   -2.5633 H         1 <0>         0.0960
     31 H10         1.2921   -2.2388   -4.6567 H         1 <0>         0.1142
     32 H11        -0.2681   -2.3172   -3.8018 H         1 <0>         0.0888
     33 H12         1.7537   -0.0379   -3.6132 H         1 <0>         0.1326
     34 H13         0.2311   -0.0002   -4.5333 H         1 <0>         0.1369
     35 H14        -0.9219   -0.3993   -2.4641 H         1 <0>         0.4269
     36 H15         1.6773   -0.5688    1.1779 H         1 <0>         0.4268
     37 H16        -2.7996   -1.1078    1.5032 H         1 <0>         0.1409
     38 H17        -4.1915   -3.0529    0.9289 H         1 <0>         0.1342
     39 H18         0.3548   -3.7183    2.6903 H         1 <0>         0.1402
     40 H19        -0.4987   -6.4643    1.2528 H         1 <0>         0.0859
     41 H20        -0.6419   -6.3769    3.0345 H         1 <0>         0.0843
     42 H21        -2.4307   -7.7903    1.4681 H         1 <0>         0.0854
     43 H22        -2.9153   -7.0018    3.0065 H         1 <0>         0.0789
     44 H23        -4.3784   -5.8293    1.5766 H         1 <0>         0.0868
     45 H24        -3.3164   -6.0512    0.1534 H         1 <0>         0.0907
     46 H25        -0.0510    0.9969   -2.4110 H         1 <0>         0.4300
@<TRIPOS>BOND
     1    1    2 1
     2    1   24 1
     3    1   25 1
     4    1   26 1
     5    2    3 1
     6    2    4 1
     7    2   11 1
     8    4    5 1
     9    4   10 1
    10    4    6 1
    11    6    7 1
    12    6   27 1
    13    6   28 1
    14    7    8 1
    15    7   29 1
    16    7   30 1
    17    8    9 1
    18    8   31 1
    19    8   32 1
    20    9   10 1
    21    9   33 1
    22    9   34 1
    23   10   35 1
    24   10   46 1
    25   11   12 1
    26   11   36 1
    27   12   13 2
    28   12   14 2
    29   12   15 1
    30   15   20 ar
    31   15   16 ar
    32   16   17 ar
    33   16   37 1
    34   17   18 ar
    35   17   38 1
    36   18   23 1
    37   18   19 ar
    38   19   20 ar
    39   19   21 1
    40   20   39 1
    41   21   22 1
    42   21   40 1
    43   21   41 1
    44   22   23 1
    45   22   42 1
    46   22   43 1
    47   23   44 1
    48   23   45 1
@<TRIPOS>MOLECULE
ZINC36814909
   40    41     0     0     0
SMALL
USER_CHARGES

@<TRIPOS>ATOM
      1 C1         -0.0173    1.4248    0.0099 C.3       1 <0>         0.0198
      2 O1          0.0021   -0.0041    0.0020 O.3       1 <0>        -0.2928
      3 C2          0.6262   -0.6188    1.0422 C.ar      1 <0>         0.1246
      4 C3          1.2022    0.1370    2.0510 C.ar      1 <0>        -0.1669
      5 C4          1.8368   -0.4890    3.1076 C.ar      1 <0>        -0.1348
      6 C5          1.8989   -1.8691    3.1612 C.ar      1 <0>        -0.0910
      7 C6          1.3262   -2.6295    2.1578 C.ar      1 <0>        -0.0835
      8 C7          0.6829   -2.0077    1.0987 C.ar      1 <0>         0.1319
      9 O2          0.1142   -2.7537    0.1138 O.3       1 <0>        -0.3051
     10 C8          0.9394   -3.0911   -1.0030 C.3       1 <0>         0.0771
     11 C9          0.1326   -3.9259   -1.9995 C.3       1 <0>         0.0956
     12 H1         -0.7734   -3.3867   -2.2758 H         1 <0>         0.0707
     13 C10         0.9759   -4.1825   -3.2512 C.3       1 <0>        -0.1482
     14 C11         0.1843   -5.0688   -4.2178 C.3       1 <0>        -0.1217
     15 C12        -0.2037   -6.3663   -3.5022 C.3       1 <0>        -0.1597
     16 C13        -1.0014   -6.0254   -2.2408 C.3       1 <0>         0.0606
     17 O3         -0.2200   -5.1743   -1.3999 O.3       1 <0>        -0.3681
     18 Br1         1.4144   -4.5169    2.2342 Br        1 <0>         0.0114
     19 C14         2.4629    0.3348    4.2032 C.3       1 <0>         0.0505
     20 N1          1.4725    0.5766    5.2609 N.4       1 <0>        -0.6373
     21 H2          1.0053    1.8021    0.0021 H         1 <0>         0.0616
     22 H3         -0.5445    1.7859   -0.8732 H         1 <0>         0.1139
     23 H4         -0.5275    1.7763    0.9067 H         1 <0>         0.0596
     24 H5          1.1556    1.2152    2.0115 H         1 <0>         0.1479
     25 H6          2.3959   -2.3544    3.9882 H         1 <0>         0.1486
     26 H7          1.2841   -2.1783   -1.4890 H         1 <0>         0.0734
     27 H8          1.7989   -3.6664   -0.6590 H         1 <0>         0.0689
     28 H9          1.2085   -3.2336   -3.7345 H         1 <0>         0.0766
     29 H10         1.9010   -4.6858   -2.9702 H         1 <0>         0.0757
     30 H11        -0.7167   -4.5453   -4.5376 H         1 <0>         0.0666
     31 H12         0.8001   -5.3016   -5.0865 H         1 <0>         0.0736
     32 H13        -0.8146   -6.9792   -4.1649 H         1 <0>         0.0773
     33 H14         0.6977   -6.9137   -3.2263 H         1 <0>         0.0728
     34 H15        -1.9224   -5.5137   -2.5203 H         1 <0>         0.0519
     35 H16        -1.2435   -6.9430   -1.7047 H         1 <0>         0.0970
     36 H17         3.3154   -0.2019    4.6195 H         1 <0>         0.1460
     37 H18         2.7981    1.2881    3.7946 H         1 <0>         0.1436
     38 H19         0.6834    1.0735    4.8756 H         1 <0>         0.4350
     39 H20         1.1622   -0.3059    5.6391 H         1 <0>         0.4368
     40 H21         1.8917    1.1282    5.9945 H         1 <0>         0.4401
@<TRIPOS>BOND
     1    1    2 1
     2    1   21 1
     3    1   22 1
     4    1   23 1
     5    2    3 1
     6    3    8 ar
     7    3    4 ar
     8    4    5 ar
     9    4   24 1
    10    5    6 ar
    11    5   19 1
    12    6    7 ar
    13    6   25 1
    14    7    8 ar
    15    7   18 1
    16    8    9 1
    17    9   10 1
    18   10   11 1
    19   10   26 1
    20   10   27 1
    21   11   12 1
    22   11   17 1
    23   11   13 1
    24   13   14 1
    25   13   28 1
    26   13   29 1
    27   14   15 1
    28   14   30 1
    29   14   31 1
    30   15   16 1
    31   15   32 1
    32   15   33 1
    33   16   17 1
    34   16   34 1
    35   16   35 1
    36   19   20 1
    37   19   36 1
    38   19   37 1
    39   20   38 1
    40   20   39 1
    41   20   40 1
@<TRIPOS>MOLECULE
ZINC54184875
   32    33     0     0     0
SMALL
USER_CHARGES

@<TRIPOS>ATOM
      1 C1         -0.0187    1.5258    0.0104 C.3       1 <0>        -0.1756
      2 C2          0.0021   -0.0041    0.0020 C.3       1 <0>        -0.1461
      3 C3          0.7182   -0.4975   -1.2568 C.3       1 <0>         0.0351
      4 H1          1.7103   -0.0491   -1.3098 H         1 <0>         0.1481
      5 C4          0.8493   -2.0210   -1.2049 C.3       1 <0>        -0.0558
      6 C5          1.6611   -2.4957   -2.3824 C.2       1 <0>         0.2123
      7 N1          1.1690   -2.8327   -3.5766 N.2       1 <0>        -0.5569
      8 C6          2.1443   -3.2012   -4.3765 C.2       1 <0>         0.3702
      9 O1          3.2993   -3.1046   -3.6954 O.3       1 <0>        -0.0763
     10 N2          2.9563   -2.6374   -2.3994 N.2       1 <0>        -0.3023
     11 C7          1.9971   -3.6446   -5.7790 C.ar      1 <0>        -0.0336
     12 C8          0.7332   -3.6939   -6.3691 C.ar      1 <0>        -0.0769
     13 C9          0.6024   -4.1088   -7.6806 C.ar      1 <0>         0.1111
     14 C10         1.7230   -4.4753   -8.4088 C.ar      1 <0>        -0.0801
     15 C11         2.9782   -4.4281   -7.8279 C.ar      1 <0>        -0.0719
     16 C12         3.1218   -4.0101   -6.5198 C.ar      1 <0>        -0.0472
     17 Br1         4.5009   -4.9309   -8.8301 Br        1 <0>         0.0017
     18 F1         -0.6200   -4.1576   -8.2538 F         1 <0>        -0.1164
     19 N3         -0.0570   -0.1128   -2.4438 N.4       1 <0>        -0.6373
     20 H2          1.0039    1.9031    0.0027 H         1 <0>         0.0741
     21 H3         -0.5459    1.8868   -0.8726 H         1 <0>         0.0536
     22 H4         -0.5289    1.8773    0.9072 H         1 <0>         0.0882
     23 H5          0.5293   -0.3651    0.8851 H         1 <0>         0.1184
     24 H6         -1.0205   -0.3814    0.0098 H         1 <0>         0.0964
     25 H7          1.3468   -2.3116   -0.2797 H         1 <0>         0.1464
     26 H8         -0.1422   -2.4724   -1.2416 H         1 <0>         0.1312
     27 H9         -0.1405   -3.4087   -5.8019 H         1 <0>         0.1609
     28 H10         1.6164   -4.7993   -9.4335 H         1 <0>         0.1630
     29 H11         4.1026   -3.9696   -6.0694 H         1 <0>         0.1575
     30 H12        -0.1435    0.8919   -2.4780 H         1 <0>         0.4374
     31 H13         0.4152   -0.4382   -3.2739 H         1 <0>         0.4332
     32 H14        -0.9754   -0.5279   -2.3947 H         1 <0>         0.4375
@<TRIPOS>BOND
     1    1    2 1
     2    1   20 1
     3    1   21 1
     4    1   22 1
     5    2    3 1
     6    2   23 1
     7    2   24 1
     8    3    4 1
     9    3    5 1
    10    3   19 1
    11    5    6 1
    12    5   25 1
    13    5   26 1
    14    6   10 2
    15    6    7 1
    16    7    8 2
    17    8    9 1
    18    8   11 1
    19    9   10 1
    20   11   16 ar
    21   11   12 ar
    22   12   13 ar
    23   12   27 1
    24   13   14 ar
    25   13   18 1
    26   14   15 ar
    27   14   28 1
    28   15   16 ar
    29   15   17 1
    30   16   29 1
    31   19   30 1
    32   19   31 1
    33   19   32 1
@<TRIPOS>MOLECULE
ZINC62821740
   35    36     0     0     0
SMALL
USER_CHARGES

@<TRIPOS>ATOM
      1 C1         -0.0173    1.4248    0.0099 C.3       1 <0>         0.0303
      2 O1          0.0021   -0.0041    0.0020 O.3       1 <0>        -0.4021
      3 C2         -1.2953   -0.6030    0.0112 C.3       1 <0>         0.0257
      4 C3         -1.1538   -2.1264    0.0017 C.3       1 <0>        -0.0011
      5 N1         -0.5138   -2.5666    1.2485 N.4       1 <0>        -0.5077
      6 C4         -0.3780   -4.0292    1.2393 C.3       1 <0>         0.0949
      7 C5          0.2786   -4.4808    2.5184 C.2       1 <0>        -0.0773
      8 C6         -0.3616   -4.9067    3.6264 C.2       1 <0>         0.0142
      9 N2          0.5996   -5.2194    4.5494 N.pl3     1 <0>        -0.5520
     10 H1          0.4499   -5.5547    5.4473 H         1 <0>         0.4342
     11 C7          1.8079   -4.9710    3.9671 C.2       1 <0>         0.2857
     12 N3          1.5960   -4.5328    2.7460 N.2       1 <0>        -0.4589
     13 C8          3.1306   -5.1661    4.5997 C.ar      1 <0>        -0.0334
     14 C9          3.2181   -5.6501    5.9058 C.ar      1 <0>        -0.0902
     15 C10         4.4544   -5.8300    6.4906 C.ar      1 <0>        -0.1048
     16 C11         5.6068   -5.5314    5.7856 C.ar      1 <0>        -0.0683
     17 C12         5.5275   -5.0510    4.4899 C.ar      1 <0>        -0.0914
     18 C13         4.2960   -4.8725    3.8913 C.ar      1 <0>        -0.0448
     19 Br1         7.1086   -4.6459    3.5350 Br        1 <0>        -0.0274
     20 H2          1.0053    1.8021    0.0021 H         1 <0>         0.1004
     21 H3         -0.5445    1.7859   -0.8732 H         1 <0>         0.0555
     22 H4         -0.5275    1.7763    0.9067 H         1 <0>         0.0515
     23 H5         -1.8320   -0.2936    0.9080 H         1 <0>         0.0742
     24 H6         -1.8490   -0.2840   -0.8718 H         1 <0>         0.0989
     25 H7         -2.1404   -2.5824   -0.0809 H         1 <0>         0.1465
     26 H8         -0.5414   -2.4291   -0.8477 H         1 <0>         0.1416
     27 H9          0.3995   -2.1444    1.3249 H         1 <0>         0.4383
     28 H10        -1.3645   -4.4852    1.1567 H         1 <0>         0.1434
     29 H11         0.2345   -4.3320    0.3900 H         1 <0>         0.1439
     30 H12        -1.4303   -4.9857    3.7601 H         1 <0>         0.1939
     31 H13         2.3194   -5.8830    6.4577 H         1 <0>         0.1270
     32 H14         4.5230   -6.2045    7.5013 H         1 <0>         0.1445
     33 H15         6.5723   -5.6734    6.2483 H         1 <0>         0.1437
     34 H16         4.2350   -4.5019    2.8787 H         1 <0>         0.1472
     35 H17        -1.0807   -2.2863    2.0347 H         1 <0>         0.4236
@<TRIPOS>BOND
     1    1    2 1
     2    1   20 1
     3    1   21 1
     4    1   22 1
     5    2    3 1
     6    3    4 1
     7    3   23 1
     8    3   24 1
     9    4    5 1
    10    4   25 1
    11    4   26 1
    12    5    6 1
    13    5   27 1
    14    5   35 1
    15    6    7 1
    16    6   28 1
    17    6   29 1
    18    7   12 1
    19    7    8 2
    20    8    9 1
    21    8   30 1
    22    9   10 1
    23    9   11 1
    24   11   12 2
    25   11   13 1
    26   13   18 ar
    27   13   14 ar
    28   14   15 ar
    29   14   31 1
    30   15   16 ar
    31   15   32 1
    32   16   17 ar
    33   16   33 1
    34   17   18 ar
    35   17   19 1
    36   18   34 1
@<TRIPOS>MOLECULE
ZINC01767514
   44    46     0     0     0
SMALL
USER_CHARGES
4-[[(1R)-6,7-dimethoxy-1,2,3,4-tetrahydroisoquinolin-1-yl]methyl]phenol
@<TRIPOS>ATOM
      1 C1         -1.9801    5.0964   -4.5265 C.3       1 <0>         0.0209
      2 O1         -1.8897    5.8421   -3.3108 O.3       1 <0>        -0.2959
      3 C2         -1.5617    5.1517   -2.1860 C.ar      1 <0>         0.1327
      4 C3         -1.3319    3.7886   -2.2490 C.ar      1 <0>        -0.1674
      5 C4         -0.9970    3.0801   -1.1048 C.ar      1 <0>        -0.0818
      6 C5         -0.8892    3.7348    0.1040 C.ar      1 <0>        -0.1264
      7 C6         -1.1206    5.1011    0.1724 C.ar      1 <0>        -0.1553
      8 C7         -1.4560    5.8124   -0.9659 C.ar      1 <0>         0.1184
      9 O2         -1.6808    7.1517   -0.8927 O.3       1 <0>        -0.2958
     10 C8         -1.5540    7.7615    0.3934 C.3       1 <0>         0.0210
     11 C9         -0.5178    3.0085    1.3706 C.3       1 <0>         0.0964
     12 H1          0.5281    3.2061    1.6051 H         1 <0>         0.1456
     13 C10        -0.0127    1.0858    0.0080 C.3       1 <0>         0.0007
     14 C11        -0.7600    1.5962   -1.2243 C.3       1 <0>        -0.1027
     15 C12        -1.3963    3.5121    2.5176 C.3       1 <0>        -0.0962
     16 C13        -0.9472    2.8792    3.8094 C.ar      1 <0>        -0.1398
     17 C14        -1.5043    1.6829    4.2220 C.ar      1 <0>        -0.1197
     18 C15        -1.0903    1.0978    5.4030 C.ar      1 <0>        -0.1371
     19 C16        -0.1233    1.7176    6.1811 C.ar      1 <0>         0.1277
     20 C17         0.4300    2.9207    5.7677 C.ar      1 <0>        -0.1352
     21 C18         0.0170    3.4986    4.5828 C.ar      1 <0>        -0.0852
     22 O3          0.2810    1.1473    7.3465 O.3       1 <0>        -0.4974
     23 H2         -1.0181    4.6302   -4.7391 H         1 <0>         0.0607
     24 H3         -2.7430    4.3247   -4.4235 H         1 <0>         0.0604
     25 H4         -2.2482    5.7656   -5.3441 H         1 <0>         0.1113
     26 H5         -1.4141    3.2735   -3.1947 H         1 <0>         0.1472
     27 H6         -1.0388    5.6124    1.1201 H         1 <0>         0.1465
     28 H7         -2.2655    7.3070    1.0828 H         1 <0>         0.0586
     29 H8         -0.5408    7.6138    0.7672 H         1 <0>         0.0591
     30 H9         -1.7589    8.8289    0.3111 H         1 <0>         0.1110
     31 H10         0.0021   -0.0041    0.0020 H         1 <0>         0.1406
     32 H11         1.0088    1.4659    0.0003 H         1 <0>         0.1340
     33 H12        -0.1666    1.3952   -2.1163 H         1 <0>         0.1225
     34 H13        -1.7178    1.0822   -1.3053 H         1 <0>         0.1041
     35 H14        -1.3080    4.5958    2.5940 H         1 <0>         0.1191
     36 H15        -2.4351    3.2449    2.3239 H         1 <0>         0.1015
     37 H16        -2.2608    1.2034    3.6185 H         1 <0>         0.1268
     38 H17        -1.5229    0.1613    5.7229 H         1 <0>         0.1381
     39 H18         1.1828    3.4053    6.3718 H         1 <0>         0.1388
     40 H19         0.4475    4.4353    4.2605 H         1 <0>         0.1339
     41 H20        -0.2334    1.4218    8.1179 H         1 <0>         0.4034
     42 N1         -0.7122    1.5609    1.2164 N.4       1 <0>        -0.5128
     43 H21        -1.7153    1.3595    1.1304 H         1 <0>         0.4311
     44 H22        -0.3354    1.0773    2.0401 H         1 <0>         0.4364
@<TRIPOS>BOND
     1    1    2 1
     2    1   23 1
     3    1   24 1
     4    1   25 1
     5    2    3 1
     6    3    8 ar
     7    3    4 ar
     8    4    5 ar
     9    4   26 1
    10    5   14 1
    11    5    6 ar
    12    6    7 ar
    13    6   11 1
    14    7    8 ar
    15    7   27 1
    16    8    9 1
    17    9   10 1
    18   10   28 1
    19   10   29 1
    20   10   30 1
    21   11   12 1
    22   11   15 1
    23   11   42 1
    24   13   14 1
    25   13   31 1
    26   13   32 1
    27   13   42 1
    28   14   33 1
    29   14   34 1
    30   15   16 1
    31   15   35 1
    32   15   36 1
    33   16   21 ar
    34   16   17 ar
    35   17   18 ar
    36   17   37 1
    37   18   19 ar
    38   18   38 1
    39   19   20 ar
    40   19   22 1
    41   20   21 ar
    42   20   39 1
    43   21   40 1
    44   22   41 1
    45   42   43 1
    46   42   44 1
@<TRIPOS>MOLECULE
ZINC36923007
   41    42     0     0     0
SMALL
USER_CHARGES

@<TRIPOS>ATOM
      1 C1          0.4446    1.6334   -0.0787 C.3       1 <0>        -0.1760
      2 C2          0.3288    0.1130    0.0482 C.3       1 <0>        -0.1494
      3 C3          0.7635   -0.5428   -1.2640 C.3       1 <0>         0.0221
      4 C4          0.7672   -2.0636   -1.0974 C.3       1 <0>        -0.1489
      5 C5          1.8001   -2.4584   -0.0400 C.3       1 <0>        -0.1575
      6 N1         -0.1735   -0.1694   -2.3320 N.4       1 <0>        -0.4966
      7 C6          0.3249   -0.6729   -3.6189 C.3       1 <0>         0.0553
      8 C7         -0.6775   -0.3646   -4.7011 C.2       1 <0>         0.3486
      9 N2         -1.7788    0.2671   -4.3945 N.2       1 <0>        -0.4891
     10 C8         -2.6848    0.5552   -5.3242 C.2       1 <0>         0.0632
     11 C9         -2.5063    0.1982   -6.6729 C.2       1 <0>        -0.2014
     12 C10        -3.5880    0.5861   -7.5588 C.2       1 <0>        -0.0736
     13 C11        -4.6484    1.2358   -7.0527 C.2       1 <0>        -0.1339
     14 S1         -4.2591    1.3736   -5.3184 S.3       1 <0>         0.1810
     15 C12        -5.8740    1.7300   -7.7771 C.3       1 <0>        -0.0787
     16 C13        -3.5218    0.2641   -9.0295 C.3       1 <0>        -0.1107
     17 C14        -1.2880   -0.4937   -6.9743 C.2       1 <0>         0.5572
     18 O1         -1.0416   -0.8453   -8.1151 O.2       1 <0>        -0.4885
     19 N3         -0.4173   -0.7437   -5.9787 N.am      1 <0>        -0.6233
     20 H1          1.4787    1.9023   -0.2942 H         1 <0>         0.0726
     21 H2         -0.1974    1.9803   -0.8884 H         1 <0>         0.0524
     22 H3          0.1349    2.1006    0.8562 H         1 <0>         0.0855
     23 H4          0.9708   -0.2339    0.8579 H         1 <0>         0.1181
     24 H5         -0.7053   -0.1559    0.2636 H         1 <0>         0.0912
     25 H6          1.7659   -0.2035   -1.5252 H         1 <0>         0.1451
     26 H7         -0.2215   -2.3969   -0.7818 H         1 <0>         0.0914
     27 H8          1.0225   -2.5327   -2.0476 H         1 <0>         0.0860
     28 H9          2.7716   -2.0433   -0.3083 H         1 <0>         0.0683
     29 H10         1.4938   -2.0682    0.9306 H         1 <0>         0.0710
     30 H11         1.8708   -3.5449    0.0111 H         1 <0>         0.0784
     31 H12        -1.0788   -0.5721   -2.1411 H         1 <0>         0.4366
     32 H13         1.2738   -0.1911   -3.8546 H         1 <0>         0.1684
     33 H14         0.4708   -1.7512   -3.5552 H         1 <0>         0.1679
     34 H15        -6.6360    0.9506   -7.7756 H         1 <0>         0.0908
     35 H16        -6.2603    2.6167   -7.2744 H         1 <0>         0.0830
     36 H17        -5.6122    1.9803   -8.8052 H         1 <0>         0.0933
     37 H18        -3.9721   -0.7123   -9.2082 H         1 <0>         0.0781
     38 H19        -4.0648    1.0232   -9.5924 H         1 <0>         0.0751
     39 H20        -2.4805    0.2485   -9.3515 H         1 <0>         0.0838
     40 H21        -0.2542    0.8355   -2.3725 H         1 <0>         0.4361
     41 H22         0.4109   -1.2080   -6.1773 H         1 <0>         0.4270
@<TRIPOS>BOND
     1    1    2 1
     2    1   20 1
     3    1   21 1
     4    1   22 1
     5    2    3 1
     6    2   23 1
     7    2   24 1
     8    3    4 1
     9    3    6 1
    10    3   25 1
    11    4    5 1
    12    4   26 1
    13    4   27 1
    14    5   28 1
    15    5   29 1
    16    5   30 1
    17    6    7 1
    18    6   31 1
    19    6   40 1
    20    7    8 1
    21    7   32 1
    22    7   33 1
    23    8   19 1
    24    8    9 2
    25    9   10 1
    26   10   14 1
    27   10   11 2
    28   11   12 1
    29   11   17 1
    30   12   13 2
    31   12   16 1
    32   13   14 1
    33   13   15 1
    34   15   34 1
    35   15   35 1
    36   15   36 1
    37   16   37 1
    38   16   38 1
    39   16   39 1
    40   17   18 2
    41   17   19 am
    42   19   41 1
@<TRIPOS>MOLECULE
ZINC42562403
   47    48     0     0     0
SMALL
USER_CHARGES

@<TRIPOS>ATOM
      1 C1          1.7811    3.7486    1.6495 C.3       1 <0>        -0.1704
      2 C2          1.4459    2.5255    0.7936 C.3       1 <0>        -0.1179
      3 C3          2.1794    2.6237   -0.5455 C.3       1 <0>        -0.1512
      4 C4          1.8861    1.2554    1.5243 C.3       1 <0>        -0.0148
      5 N1          1.0986    1.1005    2.7547 N.4       1 <0>        -0.3831
      6 C5          1.5939   -0.0577    3.5105 C.3       1 <0>         0.0514
      7 C6          0.9534   -0.0787    4.8744 C.ar      1 <0>        -0.2198
      8 C7          0.8154    1.0950    5.5907 C.ar      1 <0>        -0.0724
      9 C8          0.2260    1.0802    6.8456 C.ar      1 <0>         0.0138
     10 C9         -0.2294   -0.1178    7.3842 C.ar      1 <0>         0.1301
     11 C10        -0.0897   -1.2953    6.6662 C.ar      1 <0>        -0.1853
     12 C11         0.4971   -1.2762    5.4083 C.ar      1 <0>         0.2545
     13 N2          0.6334   -2.4639    4.6812 N.pl3     1 <0>        -0.8693
     14 O1         -0.8176   -0.1508    8.6112 O.3       1 <0>        -0.2987
     15 C12        -0.6046    0.9837    9.4581 C.3       1 <0>         0.0176
     16 C13        -0.8287    2.2535    8.6259 C.3       1 <0>         0.0205
     17 O2          0.1025    2.2467    7.5384 O.3       1 <0>        -0.3060
     18 C14        -0.3138    0.8920    2.4090 C.3       1 <0>         0.0213
     19 C15        -0.4743   -0.4611    1.7132 C.3       1 <0>        -0.1824
     20 C16        -1.1594    0.9133    3.6840 C.3       1 <0>        -0.1883
     21 H1          2.8561    3.7850    1.8259 H         1 <0>         0.0741
     22 H2          1.4674    4.6534    1.1289 H         1 <0>         0.0842
     23 H3          1.2585    3.6786    2.6035 H         1 <0>         0.0496
     24 H4          0.3709    2.4891    0.6172 H         1 <0>         0.0934
     25 H5          3.2544    2.6601   -0.3691 H         1 <0>         0.0684
     26 H6          1.9406    1.7524   -1.1553 H         1 <0>         0.0671
     27 H7          1.8658    3.5285   -1.0661 H         1 <0>         0.0774
     28 H8          1.7263    0.3913    0.8794 H         1 <0>         0.1328
     29 H9          2.9438    1.3297    1.7769 H         1 <0>         0.1325
     30 H10         1.3424   -0.9743    2.9768 H         1 <0>         0.1299
     31 H11         2.6761    0.0146    3.6183 H         1 <0>         0.1363
     32 H12         1.1678    2.0261    5.1722 H         1 <0>         0.1292
     33 H13        -0.4405   -2.2274    7.0841 H         1 <0>         0.1466
     34 H14         1.1136   -2.4642    3.8384 H         1 <0>         0.3973
     35 H15         0.2477   -3.2869    5.0199 H         1 <0>         0.4117
     36 H16        -1.3095    0.9597   10.2891 H         1 <0>         0.1321
     37 H17         0.4160    0.9704    9.8407 H         1 <0>         0.0861
     38 H18        -1.8472    2.2637    8.2378 H         1 <0>         0.0820
     39 H19        -0.6625    3.1340    9.2466 H         1 <0>         0.1303
     40 H20        -0.6452    1.6862    1.7400 H         1 <0>         0.1367
     41 H21         0.2613   -0.5479    0.9135 H         1 <0>         0.0795
     42 H22        -0.3209   -1.2620    2.4364 H         1 <0>         0.0813
     43 H23        -1.4775   -0.5374    1.2939 H         1 <0>         0.1046
     44 H24        -0.8761    1.7713    4.2936 H         1 <0>         0.0793
     45 H25        -2.2141    0.9881    3.4193 H         1 <0>         0.0937
     46 H26        -0.9904   -0.0044    4.2474 H         1 <0>         0.0952
     47 H27         1.1877    1.9328    3.3181 H         1 <0>         0.4192
@<TRIPOS>BOND
     1    1    2 1
     2    1   21 1
     3    1   22 1
     4    1   23 1
     5    2    3 1
     6    2    4 1
     7    2   24 1
     8    3   25 1
     9    3   26 1
    10    3   27 1
    11    4    5 1
    12    4   28 1
    13    4   29 1
    14    5    6 1
    15    5   18 1
    16    5   47 1
    17    6    7 1
    18    6   30 1
    19    6   31 1
    20    7   12 ar
    21    7    8 ar
    22    8    9 ar
    23    8   32 1
    24    9   17 1
    25    9   10 ar
    26   10   11 ar
    27   10   14 1
    28   11   12 ar
    29   11   33 1
    30   12   13 1
    31   13   34 1
    32   13   35 1
    33   14   15 1
    34   15   16 1
    35   15   36 1
    36   15   37 1
    37   16   17 1
    38   16   38 1
    39   16   39 1
    40   18   19 1
    41   18   20 1
    42   18   40 1
    43   19   41 1
    44   19   42 1
    45   19   43 1
    46   20   44 1
    47   20   45 1
    48   20   46 1
@<TRIPOS>MOLECULE
ZINC48330562
   47    49     0     0     0
SMALL
USER_CHARGES

@<TRIPOS>ATOM
      1 C1         -0.0167    1.3779    0.0096 C.ar      1 <0>        -0.0983
      2 C2          1.1696    2.0905    0.0021 C.ar      1 <0>        -0.1097
      3 C3          2.3767    1.4133   -0.0126 C.ar      1 <0>         0.0889
      4 C4          2.3955    0.0255   -0.0204 C.ar      1 <0>         0.0747
      5 C5          1.2072   -0.6842   -0.0130 C.ar      1 <0>        -0.0991
      6 C6          0.0021   -0.0041    0.0020 C.ar      1 <0>        -0.1369
      7 C7         -1.2941   -0.7728    0.0102 C.3       1 <0>         0.1393
      8 H1         -1.1174   -1.7868   -0.3484 H         1 <0>         0.1317
      9 C8         -1.8470   -0.8251    1.4359 C.3       1 <0>        -0.0466
     10 N1         -3.0455   -1.6740    1.4654 N.4       1 <0>        -0.5039
     11 C9         -3.5764   -1.7243    2.8342 C.3       1 <0>         0.0251
     12 C10        -2.5653   -2.4195    3.7481 C.3       1 <0>        -0.1422
     13 C11        -3.1182   -2.4719    5.1738 C.3       1 <0>        -0.1180
     14 C12        -4.4342   -3.2523    5.1821 C.3       1 <0>        -0.1322
     15 C13        -5.4452   -2.5570    4.2682 C.3       1 <0>        -0.1177
     16 C14        -4.8923   -2.5047    2.8425 C.3       1 <0>        -0.1407
     17 O1         -2.2384   -0.1234   -0.8434 O.3       1 <0>        -0.5461
     18 O2          3.5910   -0.6325   -0.0340 O.3       1 <0>        -0.3185
     19 C15         4.3577   -0.5104   -1.2338 C.3       1 <0>         0.0603
     20 C16         5.1865    0.7643   -1.2170 C.3       1 <0>        -0.1919
     21 C17         4.3233    2.0162   -1.2197 C.3       1 <0>         0.0604
     22 O3          3.5538    2.1038   -0.0187 O.3       1 <0>        -0.3186
     23 H2         -0.9601    1.9033    0.0260 H         1 <0>         0.1318
     24 H3          1.1536    3.1704    0.0081 H         1 <0>         0.1445
     25 H4          1.2204   -1.7641   -0.0196 H         1 <0>         0.1399
     26 H5         -1.0917   -1.2396    2.1035 H         1 <0>         0.1461
     27 H6         -2.1069    0.1820    1.7619 H         1 <0>         0.1378
     28 H7         -3.7447   -1.2903    0.8473 H         1 <0>         0.4318
     29 H8         -3.7531   -0.7102    3.1928 H         1 <0>         0.1387
     30 H9         -2.3886   -3.4336    3.3895 H         1 <0>         0.0880
     31 H10        -1.6278   -1.8635    3.7422 H         1 <0>         0.0866
     32 H11        -2.3979   -2.9672    5.8249 H         1 <0>         0.0851
     33 H12        -3.2949   -1.4578    5.5324 H         1 <0>         0.0745
     34 H13        -4.2575   -4.2663    4.8235 H         1 <0>         0.0706
     35 H14        -4.8281   -3.2896    6.1977 H         1 <0>         0.0798
     36 H15        -6.3827   -3.1130    4.2741 H         1 <0>         0.0856
     37 H16        -5.6219   -1.5430    4.6268 H         1 <0>         0.0746
     38 H17        -5.6126   -2.0094    2.1914 H         1 <0>         0.0881
     39 H18        -4.7156   -3.5187    2.4839 H         1 <0>         0.0877
     40 H19        -2.4438    0.7851   -0.5835 H         1 <0>         0.3891
     41 H20         5.0226   -1.3695   -1.3236 H         1 <0>         0.1119
     42 H21         3.6833   -0.4887   -2.0898 H         1 <0>         0.0599
     43 H22         5.8108    0.7679   -0.3235 H         1 <0>         0.0888
     44 H23         5.8310    0.7780   -2.0959 H         1 <0>         0.0989
     45 H24         4.9645    2.8940   -1.2998 H         1 <0>         0.1129
     46 H25         3.6496    1.9856   -2.0760 H         1 <0>         0.0605
     47 H26        -2.8049   -2.6063    1.1635 H         1 <0>         0.4267
@<TRIPOS>BOND
     1    1    6 ar
     2    1    2 ar
     3    1   23 1
     4    2    3 ar
     5    2   24 1
     6    3   22 1
     7    3    4 ar
     8    4    5 ar
     9    4   18 1
    10    5    6 ar
    11    5   25 1
    12    6    7 1
    13    7    8 1
    14    7    9 1
    15    7   17 1
    16    9   10 1
    17    9   26 1
    18    9   27 1
    19   10   11 1
    20   10   28 1
    21   10   47 1
    22   11   16 1
    23   11   12 1
    24   11   29 1
    25   12   13 1
    26   12   30 1
    27   12   31 1
    28   13   14 1
    29   13   32 1
    30   13   33 1
    31   14   15 1
    32   14   34 1
    33   14   35 1
    34   15   16 1
    35   15   36 1
    36   15   37 1
    37   16   38 1
    38   16   39 1
    39   17   40 1
    40   18   19 1
    41   19   20 1
    42   19   41 1
    43   19   42 1
    44   20   21 1
    45   20   43 1
    46   20   44 1
    47   21   22 1
    48   21   45 1
    49   21   46 1
@<TRIPOS>MOLECULE
ZINC57765459
   43    45     0     0     0
SMALL
USER_CHARGES

@<TRIPOS>ATOM
      1 C1         -0.0187    1.5258    0.0104 C.3       1 <0>        -0.1513
      2 C2          0.0021   -0.0041    0.0020 C.3       1 <0>        -0.0855
      3 C3          0.7074   -0.4901   -1.2379 C.ar      1 <0>        -0.0674
      4 C4         -0.0127   -0.7178   -2.3961 C.ar      1 <0>        -0.0939
      5 C5          0.6272   -1.1635   -3.5385 C.ar      1 <0>        -0.0999
      6 C6          1.9936   -1.3822   -3.5224 C.ar      1 <0>         0.0866
      7 C7          2.7196   -1.1529   -2.3547 C.ar      1 <0>         0.0773
      8 C8          2.0739   -0.7015   -1.2155 C.ar      1 <0>        -0.1264
      9 N1          4.1030   -1.3809   -2.3513 N.am      1 <0>        -0.5451
     10 C9          4.7484   -1.5078   -3.5313 C.2       1 <0>         0.5072
     11 O1          5.9393   -1.7366   -3.5525 O.2       1 <0>        -0.4938
     12 C10         3.9821   -1.3643   -4.8217 C.3       1 <0>         0.1325
     13 H1          4.4633   -1.9598   -5.5975 H         1 <0>         0.1629
     14 O2          2.6393   -1.8195   -4.6364 O.3       1 <0>        -0.2867
     15 C11         3.9673    0.0840   -5.2378 C.ar      1 <0>        -0.1380
     16 C12         3.0800    0.9639   -4.6467 C.ar      1 <0>        -0.1082
     17 C13         3.0663    2.2924   -5.0285 C.ar      1 <0>        -0.1158
     18 C14         3.9403    2.7411   -6.0010 C.ar      1 <0>        -0.0991
     19 C15         4.8281    1.8614   -6.5915 C.ar      1 <0>        -0.1152
     20 C16         4.8447    0.5338   -6.2067 C.ar      1 <0>        -0.0894
     21 C17         4.8375   -1.4795   -1.0876 C.3       1 <0>         0.0818
     22 C18         4.8586   -2.9369   -0.6223 C.3       1 <0>        -0.0291
     23 N2          5.5950   -3.0357    0.6449 N.4       1 <0>        -0.6308
     24 H2          1.0039    1.9031    0.0027 H         1 <0>         0.0542
     25 H3         -0.5459    1.8868   -0.8726 H         1 <0>         0.0607
     26 H4         -0.5289    1.8773    0.9072 H         1 <0>         0.0644
     27 H5          0.5293   -0.3651    0.8851 H         1 <0>         0.0718
     28 H6         -1.0205   -0.3814    0.0098 H         1 <0>         0.0810
     29 H7         -1.0791   -0.5474   -2.4087 H         1 <0>         0.1417
     30 H8          0.0615   -1.3408   -4.4412 H         1 <0>         0.1479
     31 H9          2.6354   -0.5187   -0.3113 H         1 <0>         0.1297
     32 H10         2.3972    0.6134   -3.8869 H         1 <0>         0.1261
     33 H11         2.3727    2.9797   -4.5672 H         1 <0>         0.1287
     34 H12         3.9291    3.7789   -6.2998 H         1 <0>         0.1309
     35 H13         5.5107    2.2119   -7.3516 H         1 <0>         0.1329
     36 H14         5.5409   -0.1527   -6.6653 H         1 <0>         0.1309
     37 H15         5.8595   -1.1297   -1.2331 H         1 <0>         0.1155
     38 H16         4.3468   -0.8643   -0.3333 H         1 <0>         0.1111
     39 H17         3.8365   -3.2866   -0.4768 H         1 <0>         0.1403
     40 H18         5.3492   -3.5520   -1.3766 H         1 <0>         0.1399
     41 H19         5.6089   -3.9968    0.9517 H         1 <0>         0.4440
     42 H20         6.5411   -2.7119    0.5102 H         1 <0>         0.4389
     43 H21         5.1408   -2.4663    1.3432 H         1 <0>         0.4363
@<TRIPOS>BOND
     1    1    2 1
     2    1   24 1
     3    1   25 1
     4    1   26 1
     5    2    3 1
     6    2   27 1
     7    2   28 1
     8    3    8 ar
     9    3    4 ar
    10    4    5 ar
    11    4   29 1
    12    5    6 ar
    13    5   30 1
    14    6   14 1
    15    6    7 ar
    16    7    8 ar
    17    7    9 1
    18    8   31 1
    19    9   10 am
    20    9   21 1
    21   10   11 2
    22   10   12 1
    23   12   13 1
    24   12   14 1
    25   12   15 1
    26   15   20 ar
    27   15   16 ar
    28   16   17 ar
    29   16   32 1
    30   17   18 ar
    31   17   33 1
    32   18   19 ar
    33   18   34 1
    34   19   20 ar
    35   19   35 1
    36   20   36 1
    37   21   22 1
    38   21   37 1
    39   21   38 1
    40   22   23 1
    41   22   39 1
    42   22   40 1
    43   23   41 1
    44   23   42 1
    45   23   43 1
@<TRIPOS>MOLECULE
ZINC31973640
   39    41     0     0     0
SMALL
USER_CHARGES
[3-[4-(2-methylallyloxy)phenyl]imidazo[2,1-b]thiazol-5-yl]methanamine
@<TRIPOS>ATOM
      1 C1          8.3956   -6.5621   -3.2016 C.3       1 <0>        -0.1190
      2 C2          8.5090   -5.2106   -2.5447 C.2       1 <0>        -0.1480
      3 C3          9.6779   -4.7701   -2.1501 C.2       1 <0>        -0.1689
      4 C4          7.2776   -4.3658   -2.3417 C.3       1 <0>         0.0916
      5 O1          7.6410   -3.1396   -1.7042 O.3       1 <0>        -0.3038
      6 C5          6.6395   -2.2574   -1.4469 C.ar      1 <0>         0.1618
      7 C6          6.9246   -1.0472   -0.8294 C.ar      1 <0>        -0.1552
      8 C7          5.9113   -0.1499   -0.5658 C.ar      1 <0>        -0.0913
      9 C8          4.5976   -0.4596   -0.9212 C.ar      1 <0>        -0.0869
     10 C9          4.3144   -1.6794   -1.5374 C.ar      1 <0>        -0.0385
     11 C10         5.3341   -2.5692   -1.8019 C.ar      1 <0>        -0.1915
     12 C11         3.5076    0.4997   -0.6399 C.2       1 <0>         0.0820
     13 C12         2.3365    0.0576   -0.1430 C.2       1 <0>        -0.1494
     14 S1          1.4027    1.5724    0.0058 S.3       1 <0>         0.1980
     15 C13         2.6474    2.6835   -0.6067 C.2       1 <0>         0.2016
     16 N1          3.6951    1.8482   -0.8880 N.pl3     1 <0>        -0.4120
     17 C14         4.6971    2.6843   -1.3730 C.2       1 <0>        -0.1115
     18 C15         4.2220    3.9406   -1.3613 C.2       1 <0>         0.0759
     19 N2          2.9665    3.9142   -0.8885 N.2       1 <0>        -0.4359
     20 C16         6.0683    2.2567   -1.8291 C.3       1 <0>         0.0711
     21 N3          7.0526    2.5746   -0.7860 N.4       1 <0>        -0.6881
     22 H1          7.3445   -6.7566   -3.4611 H         1 <0>         0.0645
     23 H2          8.7516   -7.3380   -2.5079 H         1 <0>         0.0758
     24 H3          9.0079   -6.5782   -4.1153 H         1 <0>         0.0754
     25 H4          9.7606   -3.7836   -1.6706 H         1 <0>         0.1086
     26 H5         10.5767   -5.3867   -2.2983 H         1 <0>         0.1082
     27 H6          6.8165   -4.1496   -3.3167 H         1 <0>         0.0803
     28 H7          6.5602   -4.9093   -1.7093 H         1 <0>         0.0812
     29 H8          7.9414   -0.8083   -0.5547 H         1 <0>         0.1424
     30 H9          6.1338    0.7911   -0.0848 H         1 <0>         0.1040
     31 H10         3.2985   -1.9246   -1.8099 H         1 <0>         0.1421
     32 H11         5.1164   -3.5116   -2.2825 H         1 <0>         0.1454
     33 H12         2.0392   -0.9515    0.1016 H         1 <0>         0.2250
     34 H13         4.7590    4.8221   -1.6791 H         1 <0>         0.1984
     35 H14         6.0707    1.1729   -2.0174 H         1 <0>         0.1449
     36 H15         6.3298    2.7903   -2.7548 H         1 <0>         0.1558
     37 H16         8.0535    2.2625   -1.1190 H         1 <0>         0.4619
     38 H17         6.7911    2.0410    0.1397 H         1 <0>         0.4449
     39 H18         7.0502    3.6584   -0.5977 H         1 <0>         0.4591
@<TRIPOS>BOND
     1    1    2 1
     2    1   22 1
     3    1   23 1
     4    1   24 1
     5    2    3 2
     6    2    4 1
     7    3   25 1
     8    3   26 1
     9    4    5 1
    10    4   27 1
    11    4   28 1
    12    5    6 1
    13    6   11 ar
    14    6    7 ar
    15    7    8 ar
    16    7   29 1
    17    8    9 ar
    18    8   30 1
    19    9   10 ar
    20    9   12 1
    21   10   11 ar
    22   10   31 1
    23   11   32 1
    24   12   16 1
    25   12   13 2
    26   13   14 1
    27   13   33 1
    28   14   15 1
    29   15   19 2
    30   15   16 1
    31   16   17 1
    32   17   18 2
    33   17   20 1
    34   18   19 1
    35   18   34 1
    36   20   21 1
    37   20   35 1
    38   20   36 1
    39   21   37 1
    40   21   38 1
    41   21   39 1
@<TRIPOS>MOLECULE
ZINC37146780
   51    52     0     0     0
SMALL
USER_CHARGES

@<TRIPOS>ATOM
      1 C1         -0.0187    1.5258    0.0104 C.3       1 <0>        -0.1607
      2 C2          0.0021   -0.0041    0.0020 C.3       1 <0>        -0.1152
      3 C3          0.7182   -0.4975   -1.2568 C.3       1 <0>        -0.0560
      4 C4         -0.0218    0.0093   -2.4963 C.3       1 <0>        -0.1483
      5 C5          2.1536    0.0321   -1.2676 C.3       1 <0>        -0.1534
      6 C6          0.7390   -2.0273   -1.2652 C.3       1 <0>        -0.0678
      7 H1         -0.2836   -2.4046   -1.2575 H         1 <0>         0.0872
      8 C7          1.4790   -2.5342   -0.0257 C.3       1 <0>        -0.1370
      9 C8          1.4997   -4.0640   -0.0341 C.3       1 <0>        -0.1101
     10 C9          2.2158   -4.5574   -1.2929 C.3       1 <0>         0.0009
     11 H2          2.2306   -5.6473   -1.2989 H         1 <0>         0.1362
     12 C10         1.4758   -4.0506   -2.5324 C.3       1 <0>         0.0357
     13 H3          0.4533   -4.4279   -2.5247 H         1 <0>         0.1601
     14 C11         1.4551   -2.5207   -2.5240 C.3       1 <0>        -0.1475
     15 N1          2.1634   -4.5243   -3.7410 N.4       1 <0>        -0.3867
     16 C12         2.1163   -6.0073   -3.8090 C.3       1 <0>        -0.0117
     17 C13         2.3404   -6.3005   -5.3138 C.3       1 <0>        -0.1427
     18 C14         1.5662   -5.1564   -6.0079 C.3       1 <0>        -0.1362
     19 C15         1.4602   -4.0427   -4.9498 C.3       1 <0>        -0.0002
     20 H4          0.4129   -3.8494   -4.7178 H         1 <0>         0.1690
     21 C16         2.1174   -2.7860   -5.4595 C.2       1 <0>         0.5121
     22 O1          3.0789   -2.3267   -4.8804 O.2       1 <0>        -0.5189
     23 N2          1.6365   -2.1724   -6.5590 N.am      1 <0>        -0.8241
     24 C17         3.5968   -4.0479   -1.3033 C.1       1 <0>         0.1597
     25 N3          4.6626   -3.6547   -1.3114 N.1       1 <0>        -0.3635
     26 H5          1.0039    1.9031    0.0027 H         1 <0>         0.0581
     27 H6         -0.5459    1.8868   -0.8726 H         1 <0>         0.0578
     28 H7         -0.5289    1.8773    0.9072 H         1 <0>         0.0573
     29 H8          0.5293   -0.3651    0.8851 H         1 <0>         0.0669
     30 H9         -1.0205   -0.3814    0.0098 H         1 <0>         0.0649
     31 H10        -0.0366    1.0992   -2.4903 H         1 <0>         0.0663
     32 H11         0.4884   -0.3422   -3.3931 H         1 <0>         0.0490
     33 H12        -1.0444   -0.3679   -2.4886 H         1 <0>         0.0580
     34 H13         2.6808   -0.3290   -0.3846 H         1 <0>         0.0585
     35 H14         2.6638   -0.3194   -2.1644 H         1 <0>         0.0535
     36 H15         2.1388    1.1220   -1.2617 H         1 <0>         0.0650
     37 H16         2.5015   -2.1569   -0.0334 H         1 <0>         0.0735
     38 H17         0.9688   -2.1826    0.8711 H         1 <0>         0.0925
     39 H18         2.0269   -4.4251    0.8490 H         1 <0>         0.0967
     40 H19         0.4771   -4.4413   -0.0263 H         1 <0>         0.0996
     41 H20         0.9279   -2.1597   -3.4071 H         1 <0>         0.0877
     42 H21         2.4777   -2.1435   -2.5317 H         1 <0>         0.1015
     43 H22         2.9137   -6.4455   -3.2088 H         1 <0>         0.1403
     44 H23         1.1430   -6.3765   -3.4859 H         1 <0>         0.1460
     45 H24         3.4008   -6.2548   -5.5620 H         1 <0>         0.1007
     46 H25         1.9212   -7.2696   -5.5846 H         1 <0>         0.1273
     47 H26         2.1175   -4.8002   -6.8782 H         1 <0>         0.1090
     48 H27         0.5727   -5.4955   -6.3012 H         1 <0>         0.1214
     49 H28         0.8675   -2.5398   -7.0222 H         1 <0>         0.4133
     50 H29         2.0595   -1.3635   -6.8871 H         1 <0>         0.4246
     51 H30         3.1206   -4.2051   -3.7450 H         1 <0>         0.4297
@<TRIPOS>BOND
     1    1    2 1
     2    1   26 1
     3    1   27 1
     4    1   28 1
     5    2    3 1
     6    2   29 1
     7    2   30 1
     8    3    4 1
     9    3    5 1
    10    3    6 1
    11    4   31 1
    12    4   32 1
    13    4   33 1
    14    5   34 1
    15    5   35 1
    16    5   36 1
    17    6    7 1
    18    6   14 1
    19    6    8 1
    20    8    9 1
    21    8   37 1
    22    8   38 1
    23    9   10 1
    24    9   39 1
    25    9   40 1
    26   10   11 1
    27   10   12 1
    28   10   24 1
    29   12   13 1
    30   12   14 1
    31   12   15 1
    32   14   41 1
    33   14   42 1
    34   15   19 1
    35   15   16 1
    36   15   51 1
    37   16   17 1
    38   16   43 1
    39   16   44 1
    40   17   18 1
    41   17   45 1
    42   17   46 1
    43   18   19 1
    44   18   47 1
    45   18   48 1
    46   19   20 1
    47   19   21 1
    48   21   22 2
    49   21   23 am
    50   23   49 1
    51   23   50 1
    52   24   25 3
@<TRIPOS>MOLECULE
ZINC43255941
   35    37     0     0     0
SMALL
USER_CHARGES

@<TRIPOS>ATOM
      1 C1         -0.0536    1.5531    0.1015 C.3       1 <0>        -0.1899
      2 C2         -0.0258    0.0244    0.0457 C.3       1 <0>         0.0091
      3 H1         -1.0462   -0.3585    0.0646 H         1 <0>         0.1648
      4 C3          0.7440   -0.5161    1.2524 C.3       1 <0>         0.1606
      5 H2          0.8405   -1.5984    1.1668 H         1 <0>         0.1224
      6 C4         -0.0018   -0.1768    2.5172 C.2       1 <0>        -0.2102
      7 C5         -0.8115   -0.9630    3.2672 C.2       1 <0>        -0.0913
      8 C6         -1.3971   -0.4333    4.4023 C.2       1 <0>        -0.1557
      9 C7         -1.1433    0.8581    4.7309 C.2       1 <0>        -0.0976
     10 S1         -0.0416    1.3629    3.4199 S.3       1 <0>         0.1554
     11 Cl1        -1.7316    1.7789    6.0798 Cl        1 <0>         0.0419
     12 O1          2.0438    0.0763    1.2925 O.3       1 <0>        -0.2843
     13 C8          3.0677   -0.6452    0.7631 C.ar      1 <0>         0.1068
     14 C9          4.3712   -0.1851    0.8766 C.ar      1 <0>        -0.1179
     15 C10         5.4134   -0.9169    0.3393 C.ar      1 <0>        -0.0471
     16 C11         5.1590   -2.1117   -0.3140 C.ar      1 <0>         0.0176
     17 C12         3.8511   -2.5756   -0.4292 C.ar      1 <0>         0.0847
     18 C13         2.8087   -1.8433    0.1151 C.ar      1 <0>        -0.2350
     19 O2          3.8663   -3.7601   -1.1075 O.3       1 <0>        -0.3029
     20 C14         5.1479   -3.8125   -1.7616 C.3       1 <0>         0.2122
     21 O3          5.9942   -3.0064   -0.9207 O.3       1 <0>        -0.2972
     22 N1          0.6369   -0.4085   -1.1918 N.4       1 <0>        -0.6402
     23 H3          0.9668    1.9360    0.0827 H         1 <0>         0.0938
     24 H4         -0.6020    1.9381   -0.7582 H         1 <0>         0.0925
     25 H5         -0.5453    1.8743    1.0197 H         1 <0>         0.1117
     26 H6         -0.9969   -1.9882    2.9824 H         1 <0>         0.1476
     27 H7         -2.0468   -1.0382    5.0174 H         1 <0>         0.1539
     28 H8          4.5721    0.7462    1.3851 H         1 <0>         0.1581
     29 H9          6.4276   -0.5565    0.4286 H         1 <0>         0.1564
     30 H10         1.7940   -2.2033    0.0308 H         1 <0>         0.1321
     31 H11         5.5148   -4.8381   -1.8035 H         1 <0>         0.1431
     32 H12         5.0847   -3.3860   -2.7627 H         1 <0>         0.0949
     33 H13         1.5814   -0.0541   -1.2092 H         1 <0>         0.4341
     34 H14         0.6552   -1.4167   -1.2286 H         1 <0>         0.4335
     35 H15         0.1292   -0.0521   -1.9876 H         1 <0>         0.4422
@<TRIPOS>BOND
     1    1    2 1
     2    1   23 1
     3    1   24 1
     4    1   25 1
     5    2    3 1
     6    2    4 1
     7    2   22 1
     8    4    5 1
     9    4    6 1
    10    4   12 1
    11    6   10 1
    12    6    7 2
    13    7    8 1
    14    7   26 1
    15    8    9 2
    16    8   27 1
    17    9   10 1
    18    9   11 1
    19   12   13 1
    20   13   18 ar
    21   13   14 ar
    22   14   15 ar
    23   14   28 1
    24   15   16 ar
    25   15   29 1
    26   16   21 1
    27   16   17 ar
    28   17   18 ar
    29   17   19 1
    30   18   30 1
    31   19   20 1
    32   20   21 1
    33   20   31 1
    34   20   32 1
    35   22   33 1
    36   22   34 1
    37   22   35 1
@<TRIPOS>MOLECULE
ZINC53123560
   45    45     0     0     0
SMALL
USER_CHARGES

@<TRIPOS>ATOM
      1 C1          0.2161   -1.6526   -3.2632 C.3       1 <0>        -0.1896
      2 C2         -0.5488   -0.5853   -2.4779 C.3       1 <0>        -0.0892
      3 C3         -0.4027    0.7666   -3.1793 C.3       1 <0>        -0.1652
      4 C4         -2.0289   -0.9663   -2.4081 C.3       1 <0>        -0.1445
      5 C5          0.0204   -0.4888   -1.0609 C.3       1 <0>        -0.1291
      6 C6          1.4167    0.1343   -1.1136 C.3       1 <0>         0.0589
      7 C7          1.2929    1.6573   -1.1922 C.3       1 <0>        -0.2004
      8 C8          2.1944   -0.2497    0.1468 C.3       1 <0>        -0.1807
      9 N1          2.1296   -0.3608   -2.2987 N.4       1 <0>        -0.5015
     10 C9          3.5323    0.0719   -2.2427 C.3       1 <0>        -0.0457
     11 C10         4.2636   -0.4361   -3.4585 C.2       1 <0>         0.5039
     12 O1          3.6743   -1.0938   -4.2899 O.2       1 <0>        -0.5085
     13 N2          5.5725   -0.1595   -3.6221 N.am      1 <0>        -0.6393
     14 C11         6.2216   -0.5218   -4.8084 C.ar      1 <0>         0.0913
     15 C12         5.5178   -0.5849   -6.0077 C.ar      1 <0>        -0.0627
     16 C13         6.2038   -0.9483   -7.1555 C.ar      1 <0>        -0.1443
     17 C14         7.5536   -1.2342   -7.0739 C.ar      1 <0>         0.1215
     18 N3          8.1928   -1.1654   -5.9222 N.ar      1 <0>        -0.4518
     19 C15         7.5797   -0.8181   -4.8072 C.ar      1 <0>         0.1606
     20 Cl1         8.4759   -0.7373   -3.3227 Cl        1 <0>        -0.0172
     21 H1          1.0724   -1.1951   -3.7587 H         1 <0>         0.0536
     22 H2          0.5632   -2.4276   -2.5797 H         1 <0>         0.0735
     23 H3         -0.4423   -2.0954   -4.0105 H         1 <0>         0.0943
     24 H4         -1.0279    0.7822   -4.0720 H         1 <0>         0.0834
     25 H5         -0.7150    1.5624   -2.5030 H         1 <0>         0.0867
     26 H6          0.6389    0.9183   -3.4625 H         1 <0>         0.0392
     27 H7         -2.1330   -1.9294   -1.9084 H         1 <0>         0.0666
     28 H8         -2.5739   -0.2059   -1.8486 H         1 <0>         0.0671
     29 H9         -2.4344   -1.0350   -3.4175 H         1 <0>         0.0693
     30 H10        -0.6324    0.1334   -0.4488 H         1 <0>         0.1157
     31 H11         0.0838   -1.4864   -0.6262 H         1 <0>         0.0973
     32 H12         0.6257    2.0087   -0.4051 H         1 <0>         0.1098
     33 H13         2.2765    2.1089   -1.0632 H         1 <0>         0.0808
     34 H14         0.8883    1.9392   -2.1642 H         1 <0>         0.0992
     35 H15         2.3799   -1.3238    0.1461 H         1 <0>         0.0830
     36 H16         3.1452    0.2831    0.1636 H         1 <0>         0.0847
     37 H17         1.6123    0.0179    1.0286 H         1 <0>         0.1107
     38 H18         2.0891   -1.3688   -2.3188 H         1 <0>         0.4337
     39 H19         3.5761    1.1608   -2.2210 H         1 <0>         0.1672
     40 H20         4.0004   -0.3286   -1.3435 H         1 <0>         0.1688
     41 H21         6.0648    0.2905   -2.9178 H         1 <0>         0.4242
     42 H22         4.4628   -0.3566   -6.0427 H         1 <0>         0.1578
     43 H23         5.6894   -1.0079   -8.1032 H         1 <0>         0.1560
     44 H24         8.0925   -1.5183   -7.9657 H         1 <0>         0.1779
     45 H25         1.6963    0.0099   -3.1311 H         1 <0>         0.4329
@<TRIPOS>BOND
     1    1    2 1
     2    1   21 1
     3    1   22 1
     4    1   23 1
     5    2    3 1
     6    2    4 1
     7    2    5 1
     8    3   24 1
     9    3   25 1
    10    3   26 1
    11    4   27 1
    12    4   28 1
    13    4   29 1
    14    5    6 1
    15    5   30 1
    16    5   31 1
    17    6    7 1
    18    6    8 1
    19    6    9 1
    20    7   32 1
    21    7   33 1
    22    7   34 1
    23    8   35 1
    24    8   36 1
    25    8   37 1
    26    9   10 1
    27    9   38 1
    28    9   45 1
    29   10   11 1
    30   10   39 1
    31   10   40 1
    32   11   12 2
    33   11   13 am
    34   13   14 1
    35   13   41 1
    36   14   19 ar
    37   14   15 ar
    38   15   16 ar
    39   15   42 1
    40   16   17 ar
    41   16   43 1
    42   17   18 ar
    43   17   44 1
    44   18   19 ar
    45   19   20 1
@<TRIPOS>MOLECULE
ZINC62237547
   41    43     0     0     0
SMALL
USER_CHARGES

@<TRIPOS>ATOM
      1 C1          0.5967    1.3223   -0.9359 C.3       1 <0>        -0.1273
      2 C2          0.5114   -0.1748   -0.7854 C.ar      1 <0>        -0.0542
      3 C3          0.4472   -0.9773   -1.9110 C.ar      1 <0>        -0.1211
      4 C4          0.3685   -2.3480   -1.7812 C.ar      1 <0>        -0.0801
      5 C5          0.3541   -2.9263   -0.5087 C.ar      1 <0>        -0.1017
      6 C6          0.4197   -2.1091    0.6235 C.ar      1 <0>        -0.0920
      7 C7          0.5033   -0.7403    0.4776 C.ar      1 <0>        -0.1247
      8 C8          0.2698   -4.3895   -0.3615 C.2       1 <0>         0.0010
      9 C9          0.2561   -4.9426    0.8649 C.2       1 <0>        -0.1821
     10 C10         0.1721   -6.4007    1.0115 C.2       1 <0>         0.1501
     11 C11         1.0502   -7.2167    1.6928 C.2       1 <0>        -0.1292
     12 N1          0.6263   -8.4730    1.5921 N.2       1 <0>        -0.2044
     13 N2         -0.4558   -8.5271    0.8990 N.2       1 <0>        -0.0236
     14 N3         -0.8003   -7.2264    0.5028 N.pl3     1 <0>        -0.2990
     15 C12        -1.9122   -6.8460   -0.2611 C.ar      1 <0>         0.0666
     16 C13        -2.7008   -5.7772    0.1424 C.ar      1 <0>        -0.0729
     17 C14        -3.7960   -5.4045   -0.6122 C.ar      1 <0>        -0.1107
     18 C15        -4.1086   -6.0945   -1.7694 C.ar      1 <0>        -0.0607
     19 C16        -3.3268   -7.1599   -2.1754 C.ar      1 <0>        -0.1380
     20 C17        -2.2248   -7.5348   -1.4278 C.ar      1 <0>         0.1302
     21 F1         -1.4569   -8.5719   -1.8277 F         1 <0>        -0.1179
     22 C18         2.2843   -6.7611    2.4279 C.3       1 <0>         0.1006
     23 N4          1.9381   -6.4528    3.8219 N.4       1 <0>        -0.6367
     24 H1          1.6429    1.6227   -0.9927 H         1 <0>         0.0792
     25 H2          0.0815    1.6257   -1.8473 H         1 <0>         0.0736
     26 H3          0.1273    1.8012   -0.0766 H         1 <0>         0.0726
     27 H4          0.4585   -0.5291   -2.8935 H         1 <0>         0.1318
     28 H5          0.3178   -2.9730   -2.6605 H         1 <0>         0.1287
     29 H6          0.4086   -2.5488    1.6099 H         1 <0>         0.1232
     30 H7          0.5584   -0.1079    1.3514 H         1 <0>         0.1296
     31 H8          0.2189   -5.0183   -1.2381 H         1 <0>         0.1233
     32 H9          0.3070   -4.3138    1.7414 H         1 <0>         0.1520
     33 H10        -2.4583   -5.2375    1.0459 H         1 <0>         0.1412
     34 H11        -4.4095   -4.5731   -0.2980 H         1 <0>         0.1493
     35 H12        -4.9656   -5.8004   -2.3570 H         1 <0>         0.1513
     36 H13        -3.5737   -7.6969   -3.0793 H         1 <0>         0.1561
     37 H14         3.0332   -7.5528    2.4062 H         1 <0>         0.1533
     38 H15         2.6850   -5.8687    1.9471 H         1 <0>         0.1501
     39 H16         1.5673   -7.2788    4.2670 H         1 <0>         0.4390
     40 H17         2.7645   -6.1477    4.3140 H         1 <0>         0.4417
     41 H18         1.2449   -5.7199    3.8420 H         1 <0>         0.4316
@<TRIPOS>BOND
     1    1    2 1
     2    1   24 1
     3    1   25 1
     4    1   26 1
     5    2    7 ar
     6    2    3 ar
     7    3    4 ar
     8    3   27 1
     9    4    5 ar
    10    4   28 1
    11    5    6 ar
    12    5    8 1
    13    6    7 ar
    14    6   29 1
    15    7   30 1
    16    8    9 2
    17    8   31 1
    18    9   10 1
    19    9   32 1
    20   10   14 1
    21   10   11 2
    22   11   12 1
    23   11   22 1
    24   12   13 2
    25   13   14 1
    26   14   15 1
    27   15   20 ar
    28   15   16 ar
    29   16   17 ar
    30   16   33 1
    31   17   18 ar
    32   17   34 1
    33   18   19 ar
    34   18   35 1
    35   19   20 ar
    36   19   36 1
    37   20   21 1
    38   22   23 1
    39   22   37 1
    40   22   38 1
    41   23   39 1
    42   23   40 1
    43   23   41 1
@<TRIPOS>MOLECULE
ZINC20390817
   44    47     0     0     0
SMALL
USER_CHARGES
[3-(benzofuran-2-yl)-1-(4-ethylphenyl)pyrazol-4-yl]methanamine
@<TRIPOS>ATOM
      1 C1          4.4242   -7.0383   -1.3530 C.3       1 <0>        -0.1515
      2 C2          3.3356   -6.6365   -2.3501 C.3       1 <0>        -0.0940
      3 C3          2.5952   -5.4325   -1.8274 C.ar      1 <0>        -0.0642
      4 C4          3.0338   -4.1605   -2.1466 C.ar      1 <0>        -0.0937
      5 C5          2.3580   -3.0551   -1.6683 C.ar      1 <0>        -0.0993
      6 C6          1.2366   -3.2220   -0.8665 C.ar      1 <0>         0.1180
      7 C7          0.8017   -4.5006   -0.5434 C.ar      1 <0>        -0.1225
      8 C8          1.4788   -5.6020   -1.0291 C.ar      1 <0>        -0.0925
      9 N1          0.5488   -2.1028   -0.3798 N.pl3     1 <0>        -0.2863
     10 C9         -0.5568   -2.1265    0.4102 C.2       1 <0>         0.1088
     11 C10        -0.9154   -0.8493    0.6610 C.2       1 <0>        -0.2936
     12 C11         0.0021   -0.0041    0.0020 C.2       1 <0>         0.1696
     13 N2          0.8771   -0.7636   -0.6270 N.2       1 <0>        -0.2378
     14 C12        -0.0180    1.4738    0.0101 C.2       1 <0>         0.0564
     15 C13         1.0797    2.2673    0.0039 C.2       1 <0>        -0.1155
     16 C14         0.5844    3.6458    0.0161 C.ar      1 <0>        -0.1375
     17 C15         1.1964    4.9001    0.0163 C.ar      1 <0>        -0.0573
     18 C16         0.4265    6.0297    0.0291 C.ar      1 <0>        -0.1274
     19 C17        -0.9578    5.9363    0.0418 C.ar      1 <0>        -0.0738
     20 C18        -1.5806    4.7060    0.0418 C.ar      1 <0>        -0.1131
     21 C19        -0.8181    3.5450    0.0289 C.ar      1 <0>         0.0655
     22 O1         -1.1312    2.2333    0.0190 O.3       1 <0>        -0.2134
     23 C20        -2.0878   -0.4052    1.4973 C.3       1 <0>         0.0942
     24 N3         -3.2046   -0.0353    0.6176 N.4       1 <0>        -0.6863
     25 H1          4.9646   -7.9171   -1.7346 H         1 <0>         0.0662
     26 H2          3.9625   -7.2835   -0.3852 H         1 <0>         0.0575
     27 H3          5.1281   -6.2032   -1.2224 H         1 <0>         0.0580
     28 H4          3.7973   -6.3913   -3.3179 H         1 <0>         0.0802
     29 H5          2.6317   -7.4716   -2.4807 H         1 <0>         0.0798
     30 H6          3.9060   -4.0314   -2.7703 H         1 <0>         0.1395
     31 H7          2.7015   -2.0619   -1.9174 H         1 <0>         0.1408
     32 H8         -0.0673   -4.6336    0.0840 H         1 <0>         0.1316
     33 H9          1.1387   -6.5967   -0.7815 H         1 <0>         0.1400
     34 H10        -1.0598   -3.0107    0.7729 H         1 <0>         0.1950
     35 H11         2.1114    1.9482   -0.0080 H         1 <0>         0.1671
     36 H12         2.2736    4.9780    0.0061 H         1 <0>         0.1358
     37 H13         0.8987    7.0010    0.0292 H         1 <0>         0.1389
     38 H14        -1.5539    6.8368    0.0514 H         1 <0>         0.1438
     39 H15        -2.6589    4.6452    0.0514 H         1 <0>         0.1354
     40 H16        -2.3987   -1.2273    2.1587 H         1 <0>         0.1383
     41 H17        -1.7963    0.4641    2.1051 H         1 <0>         0.1345
     42 H18        -4.0603    0.2889    1.2280 H         1 <0>         0.4578
     43 H19        -3.4961   -0.9046    0.0098 H         1 <0>         0.4525
     44 H20        -2.8936    0.7868   -0.0438 H         1 <0>         0.4545
@<TRIPOS>BOND
     1    1    2 1
     2    1   25 1
     3    1   26 1
     4    1   27 1
     5    2    3 1
     6    2   28 1
     7    2   29 1
     8    3    8 ar
     9    3    4 ar
    10    4    5 ar
    11    4   30 1
    12    5    6 ar
    13    5   31 1
    14    6    7 ar
    15    6    9 1
    16    7    8 ar
    17    7   32 1
    18    8   33 1
    19    9   13 1
    20    9   10 1
    21   10   11 2
    22   10   34 1
    23   11   12 1
    24   11   23 1
    25   12   13 2
    26   12   14 1
    27   14   22 1
    28   14   15 2
    29   15   16 1
    30   15   35 1
    31   16   21 ar
    32   16   17 ar
    33   17   18 ar
    34   17   36 1
    35   18   19 ar
    36   18   37 1
    37   19   20 ar
    38   19   38 1
    39   20   21 ar
    40   20   39 1
    41   21   22 1
    42   23   24 1
    43   23   40 1
    44   23   41 1
    45   24   42 1
    46   24   43 1
    47   24   44 1
@<TRIPOS>MOLECULE
ZINC37661788
   48    49     0     0     0
SMALL
USER_CHARGES

@<TRIPOS>ATOM
      1 C1         -3.1702    2.5512   -1.4459 C.3       1 <0>        -0.1612
      2 C2         -2.1243    1.8282   -0.5949 C.3       1 <0>        -0.0932
      3 C3         -2.6102    0.4378   -0.2758 C.ar      1 <0>        -0.0764
      4 C4         -3.4971    0.2370    0.7638 C.ar      1 <0>        -0.1211
      5 C5         -3.9430   -1.0384    1.0576 C.ar      1 <0>        -0.0976
      6 C6         -3.5034   -2.1170    0.3118 C.ar      1 <0>        -0.1171
      7 C7         -2.6171   -1.9233   -0.7291 C.ar      1 <0>        -0.0606
      8 C8         -2.1711   -0.6424   -1.0304 C.ar      1 <0>         0.1050
      9 N1         -1.2786   -0.4422   -2.0860 N.pl3     1 <0>        -1.0492
     10 S1         -1.7564   -0.7438   -3.6427 S.o2      1 <0>         2.5985
     11 O1         -0.5984   -0.5034   -4.4304 O.2       1 <0>        -0.9374
     12 O2         -2.3461   -2.0358   -3.5971 O.2       1 <0>        -0.9223
     13 C9         -3.0213    0.5084   -3.9929 C.3       1 <0>        -0.6755
     14 C10        -3.6628    0.2191   -5.3515 C.3       1 <0>        -0.1345
     15 C11        -4.7297    1.2752   -5.6469 C.3       1 <0>         0.0378
     16 H1         -4.2859    2.2685   -5.5782 H         1 <0>         0.1444
     17 C12        -5.2821    1.0606   -7.0577 C.3       1 <0>        -0.1440
     18 C13        -6.3491    2.1198   -7.3489 C.3       1 <0>        -0.1389
     19 C14        -7.4416    2.0372   -6.2790 C.3       1 <0>        -0.1485
     20 C15        -6.8092    2.2157   -4.8971 C.3       1 <0>        -0.0077
     21 N2         -5.8179    1.1575   -4.6689 N.4       1 <0>        -0.5077
     22 C16        -2.1382   -3.0992   -1.5409 C.3       1 <0>        -0.1192
     23 H2         -2.8636    3.5863   -1.5965 H         1 <0>         0.0672
     24 H3         -3.2591    2.0543   -2.4120 H         1 <0>         0.0469
     25 H4         -4.1330    2.5280   -0.9354 H         1 <0>         0.0612
     26 H5         -1.1860    1.7675   -1.1464 H         1 <0>         0.0755
     27 H6         -1.9659    2.3794    0.3320 H         1 <0>         0.0839
     28 H7         -3.8424    1.0771    1.3482 H         1 <0>         0.1290
     29 H8         -4.6360   -1.1927    1.8715 H         1 <0>         0.1305
     30 H9         -3.8534   -3.1120    0.5442 H         1 <0>         0.1328
     31 H10        -0.3790   -0.1265   -1.9073 H         1 <0>         0.4290
     32 H11        -3.7858    0.4796   -3.2166 H         1 <0>         0.1287
     33 H12        -2.5598    1.4957   -4.0119 H         1 <0>         0.1525
     34 H13        -2.8982    0.2480   -6.1278 H         1 <0>         0.1274
     35 H14        -4.1243   -0.7682   -5.3325 H         1 <0>         0.1083
     36 H15        -4.4732    1.1498   -7.7828 H         1 <0>         0.1160
     37 H16        -5.7264    0.0677   -7.1274 H         1 <0>         0.0930
     38 H17        -5.8942    3.1102   -7.3296 H         1 <0>         0.0834
     39 H18        -6.7858    1.9370   -8.3307 H         1 <0>         0.0978
     40 H19        -8.1763    2.8246   -6.4475 H         1 <0>         0.1142
     41 H20        -7.9307    1.0646   -6.3326 H         1 <0>         0.0898
     42 H21        -6.3206    3.1887   -4.8445 H         1 <0>         0.1314
     43 H22        -7.5844    2.1576   -4.1330 H         1 <0>         0.1351
     44 H23        -6.2605    0.2560   -4.7667 H         1 <0>         0.4276
     45 H24        -2.8370   -3.2867   -2.3561 H         1 <0>         0.1151
     46 H25        -1.1521   -2.8804   -1.9507 H         1 <0>         0.0605
     47 H26        -2.0789   -3.9811   -0.9030 H         1 <0>         0.0649
     48 H27        -5.4420    1.2460   -3.7368 H         1 <0>         0.4245
@<TRIPOS>BOND
     1    1    2 1
     2    1   23 1
     3    1   24 1
     4    1   25 1
     5    2    3 1
     6    2   26 1
     7    2   27 1
     8    3    8 ar
     9    3    4 ar
    10    4    5 ar
    11    4   28 1
    12    5    6 ar
    13    5   29 1
    14    6    7 ar
    15    6   30 1
    16    7    8 ar
    17    7   22 1
    18    8    9 1
    19    9   10 1
    20    9   31 1
    21   10   11 2
    22   10   12 2
    23   10   13 1
    24   13   14 1
    25   13   32 1
    26   13   33 1
    27   14   15 1
    28   14   34 1
    29   14   35 1
    30   15   16 1
    31   15   21 1
    32   15   17 1
    33   17   18 1
    34   17   36 1
    35   17   37 1
    36   18   19 1
    37   18   38 1
    38   18   39 1
    39   19   20 1
    40   19   40 1
    41   19   41 1
    42   20   21 1
    43   20   42 1
    44   20   43 1
    45   21   44 1
    46   21   48 1
    47   22   45 1
    48   22   46 1
    49   22   47 1
@<TRIPOS>MOLECULE
ZINC42455706
   38    38     0     0     0
SMALL
USER_CHARGES

@<TRIPOS>ATOM
      1 C1         -0.0187    1.5258    0.0104 C.3       1 <0>        -0.1778
      2 C2          0.0021   -0.0041    0.0020 C.3       1 <0>        -0.1434
      3 H1          0.5293   -0.3651    0.8851 H         1 <0>         0.0993
      4 C3         -1.4333   -0.5336    0.0129 C.3       1 <0>        -0.0044
      5 N1         -2.0833   -0.1607    1.2764 N.4       1 <0>        -0.6378
      6 C4          0.7182   -0.4975   -1.2568 C.3       1 <0>         0.1239
      7 N2          2.1249   -0.0911   -1.2094 N.pl3     1 <0>        -0.6195
      8 C5          3.1214   -0.9713   -0.5942 C.3       1 <0>         0.0803
      9 C6          2.5160    1.1357   -1.7506 C.ar      1 <0>         0.2708
     10 C7          1.5716    1.9741   -2.3292 C.ar      1 <0>        -0.2191
     11 C8          1.9617    3.1866   -2.8630 C.ar      1 <0>         0.0362
     12 C9          3.2908    3.5662   -2.8225 C.ar      1 <0>        -0.7047
     13 C10         4.2336    2.7339   -2.2473 C.ar      1 <0>         0.0416
     14 C11         3.8495    1.5226   -1.7065 C.ar      1 <0>        -0.2084
     15 S1          3.7843    5.1135   -3.5058 S.o2      1 <0>         2.4892
     16 O1          5.1480    4.9338   -3.8628 O.2       1 <0>        -0.8576
     17 O2          2.8076    5.4000   -4.4974 O.2       1 <0>        -0.8603
     18 C12         3.6475    6.2934   -2.1348 C.3       1 <0>        -0.0222
     19 F1          4.4906    5.8959   -1.0916 F         1 <0>        -0.1585
     20 F2          4.0211    7.5671   -2.5768 F         1 <0>        -0.1563
     21 F3          2.3254    6.3272   -1.6788 F         1 <0>        -0.1613
     22 H2          1.0039    1.9031    0.0027 H         1 <0>         0.0891
     23 H3         -0.5459    1.8868   -0.8726 H         1 <0>         0.0783
     24 H4         -0.5289    1.8773    0.9072 H         1 <0>         0.0543
     25 H5         -1.9862   -0.1019   -0.8214 H         1 <0>         0.1380
     26 H6         -1.4207   -1.6194   -0.0826 H         1 <0>         0.1379
     27 H7         -3.0299   -0.5100    1.2835 H         1 <0>         0.4405
     28 H8         -1.5715   -0.5604    2.0487 H         1 <0>         0.4356
     29 H9          0.6556   -1.5845   -1.3079 H         1 <0>         0.0930
     30 H10         0.2444   -0.0644   -2.1377 H         1 <0>         0.0935
     31 H11         3.5298   -1.6420   -1.3502 H         1 <0>         0.0640
     32 H12         3.9251   -0.3697   -0.1698 H         1 <0>         0.0797
     33 H13         2.6506   -1.5573    0.1951 H         1 <0>         0.0721
     34 H14         0.5335    1.6780   -2.3618 H         1 <0>         0.1377
     35 H15         1.2279    3.8389   -3.3129 H         1 <0>         0.1490
     36 H16         5.2708    3.0334   -2.2173 H         1 <0>         0.1513
     37 H17         4.5855    0.8751   -1.2534 H         1 <0>         0.1418
     38 H18        -2.0949    0.8443    1.3648 H         1 <0>         0.4345
@<TRIPOS>BOND
     1    1    2 1
     2    1   22 1
     3    1   23 1
     4    1   24 1
     5    2    3 1
     6    2    4 1
     7    2    6 1
     8    4    5 1
     9    4   25 1
    10    4   26 1
    11    5   27 1
    12    5   28 1
    13    5   38 1
    14    6    7 1
    15    6   29 1
    16    6   30 1
    17    7    8 1
    18    7    9 1
    19    8   31 1
    20    8   32 1
    21    8   33 1
    22    9   14 ar
    23    9   10 ar
    24   10   11 ar
    25   10   34 1
    26   11   12 ar
    27   11   35 1
    28   12   13 ar
    29   12   15 1
    30   13   14 ar
    31   13   36 1
    32   14   37 1
    33   15   16 2
    34   15   17 2
    35   15   18 1
    36   18   19 1
    37   18   20 1
    38   18   21 1
@<TRIPOS>MOLECULE
ZINC54160196
   41    42     0     0     0
SMALL
USER_CHARGES

@<TRIPOS>ATOM
      1 C1         -0.0187    1.5258    0.0104 C.3       1 <0>        -0.1896
      2 C2          0.0021   -0.0041    0.0020 C.3       1 <0>        -0.0140
      3 N1          0.7126   -0.4907    1.1921 N.4       1 <0>        -0.5123
      4 C3          0.7325   -1.9595    1.1840 C.3       1 <0>         0.1458
      5 H1         -0.2871   -2.3363    1.1022 H         1 <0>         0.1589
      6 C4          1.5554   -2.4519   -0.0082 C.3       1 <0>        -0.1817
      7 C5          1.3520   -2.4606    2.4632 C.2       1 <0>        -0.2994
      8 C6          1.0006   -3.5178    3.2416 C.2       1 <0>         0.1158
      9 N2          1.6839   -3.7844    4.3304 N.2       1 <0>        -0.5072
     10 C7          2.7191   -3.0394    4.6927 C.2       1 <0>         0.2289
     11 S1          2.7580   -1.8333    3.3733 S.3       1 <0>         0.0257
     12 C8          3.6056   -3.1732    5.8679 C.ar      1 <0>        -0.0224
     13 C9          4.6467   -2.2647    6.0656 C.ar      1 <0>        -0.1000
     14 C10         5.4732   -2.3908    7.1627 C.ar      1 <0>        -0.1071
     15 C11         5.2726   -3.4194    8.0714 C.ar      1 <0>         0.1202
     16 C12         4.2355   -4.3294    7.8799 C.ar      1 <0>         0.1080
     17 C13         3.4000   -4.2049    6.7853 C.ar      1 <0>        -0.1366
     18 O1          4.0416   -5.3371    8.7723 O.3       1 <0>        -0.2980
     19 C14         2.9593   -6.2336    8.5135 C.3       1 <0>         0.0501
     20 C15         2.8988   -7.2921    9.6166 C.3       1 <0>        -0.1544
     21 O2          6.0900   -3.5399    9.1508 O.3       1 <0>        -0.4803
     22 H2          1.0039    1.9031    0.0027 H         1 <0>         0.0811
     23 H3         -0.5459    1.8868   -0.8726 H         1 <0>         0.1096
     24 H4         -0.5289    1.8773    0.9072 H         1 <0>         0.0815
     25 H5         -1.0205   -0.3814    0.0098 H         1 <0>         0.1351
     26 H6          0.5123   -0.3556   -0.8948 H         1 <0>         0.1352
     27 H7          1.6592   -0.1414    1.1850 H         1 <0>         0.4248
     28 H8          2.5749   -2.0751    0.0737 H         1 <0>         0.0832
     29 H9          1.5702   -3.5418   -0.0141 H         1 <0>         0.1105
     30 H10         1.1073   -2.0895   -0.9334 H         1 <0>         0.0913
     31 H11         0.1604   -4.1374    2.9650 H         1 <0>         0.1788
     32 H12         4.8053   -1.4631    5.3594 H         1 <0>         0.1338
     33 H13         6.2785   -1.6874    7.3142 H         1 <0>         0.1526
     34 H14         2.5925   -4.9070    6.6381 H         1 <0>         0.1494
     35 H15         2.0228   -5.6762    8.4931 H         1 <0>         0.0650
     36 H16         3.1133   -6.7207    7.5506 H         1 <0>         0.0656
     37 H17         2.0733   -7.9759    9.4192 H         1 <0>         0.0829
     38 H18         3.8353   -7.8494    9.6371 H         1 <0>         0.0703
     39 H19         2.7448   -6.8050   10.5795 H         1 <0>         0.0693
     40 H20         5.7855   -3.0562    9.9308 H         1 <0>         0.3990
     41 H21         0.2403   -0.1653    2.0223 H         1 <0>         0.4308
@<TRIPOS>BOND
     1    1    2 1
     2    1   22 1
     3    1   23 1
     4    1   24 1
     5    2    3 1
     6    2   25 1
     7    2   26 1
     8    3    4 1
     9    3   27 1
    10    3   41 1
    11    4    5 1
    12    4    6 1
    13    4    7 1
    14    6   28 1
    15    6   29 1
    16    6   30 1
    17    7   11 1
    18    7    8 2
    19    8    9 1
    20    8   31 1
    21    9   10 2
    22   10   11 1
    23   10   12 1
    24   12   17 ar
    25   12   13 ar
    26   13   14 ar
    27   13   32 1
    28   14   15 ar
    29   14   33 1
    30   15   16 ar
    31   15   21 1
    32   16   17 ar
    33   16   18 1
    34   17   34 1
    35   18   19 1
    36   19   20 1
    37   19   35 1
    38   19   36 1
    39   20   37 1
    40   20   38 1
    41   20   39 1
    42   21   40 1
@<TRIPOS>MOLECULE
ZINC07665042
   41    43     0     0     0
SMALL
USER_CHARGES

@<TRIPOS>ATOM
      1 C1         -0.0167    1.3779    0.0096 C.ar      1 <0>        -0.0371
      2 C2          1.1708    2.0879    0.0021 C.ar      1 <0>        -0.0642
      3 C3          2.3799    1.4159   -0.0142 C.ar      1 <0>        -0.0469
      4 C4          2.4028    0.0348   -0.0240 C.ar      1 <0>        -0.1214
      5 C5          1.2127   -0.6792   -0.0166 C.ar      1 <0>         0.1691
      6 C6          0.0021   -0.0041    0.0020 C.ar      1 <0>        -0.1860
      7 C7         -1.2979   -0.7678    0.0186 C.3       1 <0>         0.0973
      8 O1         -1.0542   -2.1249   -0.3633 O.3       1 <0>        -0.3745
      9 C8          0.0427   -2.7177    0.3422 C.3       1 <0>         0.2202
     10 O2          1.2454   -2.0388   -0.0304 O.3       1 <0>        -0.3276
     11 C9          3.7202   -0.6968   -0.0432 C.3       1 <0>        -0.0759
     12 S1          4.2672   -1.0022    1.6592 S.3       1 <0>         0.0630
     13 C10         5.7987   -1.8525    1.4689 C.cat     1 <0>         0.4695
     14 N1          6.4717   -2.2272    2.5214 N.pl3     1 <0>        -0.5957
     15 C11         7.7450   -2.9342    2.3631 C.3       1 <0>         0.0945
     16 C12         7.4961   -4.4524    2.2503 C.3       1 <0>        -0.1421
     17 C13         8.6816   -5.0897    3.0167 C.3       1 <0>        -0.1248
     18 C14         8.8769   -4.1220    4.2102 C.3       1 <0>        -0.1292
     19 C15         8.6230   -2.7241    3.6092 C.3       1 <0>        -0.1316
     20 N2          6.2845   -2.1210    0.2102 N.pl3     1 <0>        -0.7992
     21 Cl1         1.1435    3.8236    0.0125 Cl        1 <0>        -0.0414
     22 H1         -0.9596    1.9043    0.0260 H         1 <0>         0.1516
     23 H2          3.3062    1.9712   -0.0195 H         1 <0>         0.1505
     24 H3         -1.7217   -0.7428    1.0226 H         1 <0>         0.0853
     25 H4         -1.9965   -0.3122   -0.6831 H         1 <0>         0.1264
     26 H5         -0.1162   -2.6181    1.4159 H         1 <0>         0.0723
     27 H6          0.1208   -3.7722    0.0776 H         1 <0>         0.1512
     28 H7          3.6002   -1.6477   -0.5623 H         1 <0>         0.1285
     29 H8          4.4644   -0.0916   -0.5609 H         1 <0>         0.1247
     30 H9          8.2643   -2.5733    1.4753 H         1 <0>         0.1107
     31 H10         6.5499   -4.7198    2.7208 H         1 <0>         0.0861
     32 H11         7.5053   -4.7640    1.2058 H         1 <0>         0.0834
     33 H12         8.4225   -6.0886    3.3677 H         1 <0>         0.0850
     34 H13         9.5746   -5.1181    2.3923 H         1 <0>         0.0803
     35 H14         8.1537   -4.3360    4.9971 H         1 <0>         0.0764
     36 H15         9.8939   -4.1924    4.5959 H         1 <0>         0.0846
     37 H16         9.5687   -2.2620    3.3260 H         1 <0>         0.0956
     38 H17         8.1017   -2.0961    4.3317 H         1 <0>         0.0840
     39 H18         5.7839   -1.8423   -0.5726 H         1 <0>         0.4363
     40 H19         7.1276   -2.5891    0.1054 H         1 <0>         0.4266
     41 H20         6.1292   -2.0378    3.4089 H         1 <0>         0.4447
@<TRIPOS>BOND
     1    1    6 ar
     2    1    2 ar
     3    1   22 1
     4    2    3 ar
     5    2   21 1
     6    3    4 ar
     7    3   23 1
     8    4    5 ar
     9    4   11 1
    10    5   10 1
    11    5    6 ar
    12    6    7 1
    13    7    8 1
    14    7   24 1
    15    7   25 1
    16    8    9 1
    17    9   10 1
    18    9   26 1
    19    9   27 1
    20   11   12 1
    21   11   28 1
    22   11   29 1
    23   12   13 1
    24   13   14 2
    25   13   20 1
    26   14   15 1
    27   14   41 1
    28   15   19 1
    29   15   16 1
    30   15   30 1
    31   16   17 1
    32   16   31 1
    33   16   32 1
    34   17   18 1
    35   17   33 1
    36   17   34 1
    37   18   19 1
    38   18   35 1
    39   18   36 1
    40   19   37 1
    41   19   38 1
    42   20   39 1
    43   20   40 1
@<TRIPOS>MOLECULE
ZINC11825265
   38    40     0     0     0
SMALL
USER_CHARGES
(S)-[4-(4-chlorophenyl)thiazol-2-yl]-(4-methoxyphenyl)methanamine
@<TRIPOS>ATOM
      1 C1          9.1504    0.2913   -5.3458 C.3       1 <0>         0.0202
      2 O1          8.5979    1.5396   -4.9233 O.3       1 <0>        -0.3047
      3 C2          8.0110    1.5713   -3.6979 C.ar      1 <0>         0.1696
      4 C3          7.4541    2.7505   -3.2246 C.ar      1 <0>        -0.1428
      5 C4          6.8586    2.7802   -1.9785 C.ar      1 <0>        -0.0301
      6 C5          6.8176    1.6362   -1.2030 C.ar      1 <0>        -0.1988
      7 C6          7.3769    0.4612   -1.6701 C.ar      1 <0>        -0.0712
      8 C7          7.9682    0.4247   -2.9181 C.ar      1 <0>        -0.1982
      9 C8          6.1677    1.6716    0.1562 C.3       1 <0>         0.2079
     10 H1          6.1122    2.7026    0.5056 H         1 <0>         0.1762
     11 C9          4.7776    1.0971    0.0634 C.2       1 <0>         0.0003
     12 N1          3.6274    1.7257    0.0710 N.2       1 <0>        -0.4457
     13 C10         2.4808    1.0697   -0.0154 C.2       1 <0>         0.1051
     14 C11         2.5296   -0.2939   -0.1255 C.2       1 <0>        -0.1518
     15 S1          4.2956   -0.5638   -0.0887 S.3       1 <0>         0.0883
     16 C12         1.1841    1.7902    0.0004 C.ar      1 <0>        -0.0406
     17 C13        -0.0126    1.0758    0.0080 C.ar      1 <0>        -0.0866
     18 C14        -1.2162    1.7506    0.0173 C.ar      1 <0>        -0.1074
     19 C15        -1.2363    3.1348    0.0303 C.ar      1 <0>        -0.0194
     20 C16        -0.0504    3.8490    0.0233 C.ar      1 <0>        -0.1111
     21 C17         1.1585    3.1836    0.0081 C.ar      1 <0>        -0.0694
     22 Cl1        -2.7537    3.9779    0.0488 Cl        1 <0>        -0.0525
     23 H2          9.9229   -0.0207   -4.6430 H         1 <0>         0.0630
     24 H3          8.3633   -0.4620   -5.3785 H         1 <0>         0.0627
     25 H4          9.5865    0.4044   -6.3384 H         1 <0>         0.1125
     26 H5          7.4859    3.6443   -3.8299 H         1 <0>         0.1482
     27 H6          6.4249    3.6979   -1.6095 H         1 <0>         0.1450
     28 H7          7.3479   -0.4299   -1.0606 H         1 <0>         0.1222
     29 H8          8.4014   -0.4944   -3.2842 H         1 <0>         0.1437
     30 H9          1.7242   -1.0084   -0.2107 H         1 <0>         0.2148
     31 H10         0.0021   -0.0041    0.0020 H         1 <0>         0.1354
     32 H11        -2.1441    1.1980    0.0187 H         1 <0>         0.1435
     33 H12        -0.0713    4.9288    0.0293 H         1 <0>         0.1415
     34 H13         2.0831    3.7416    0.0020 H         1 <0>         0.1407
     35 H14         6.5848    0.9371    2.0337 H         1 <0>         0.4453
     36 H15         7.0304   -0.0837    0.7987 H         1 <0>         0.4322
     37 N2          6.9863    0.8888    1.0987 N.4       1 <0>        -0.6429
     38 H16         7.9371    1.2757    1.1220 H         1 <0>         0.4547
@<TRIPOS>BOND
     1    1    2 1
     2    1   23 1
     3    1   24 1
     4    1   25 1
     5    2    3 1
     6    3    8 ar
     7    3    4 ar
     8    4    5 ar
     9    4   26 1
    10    5    6 ar
    11    5   27 1
    12    6    7 ar
    13    6    9 1
    14    7    8 ar
    15    7   28 1
    16    8   29 1
    17    9   10 1
    18    9   11 1
    19    9   37 1
    20   11   15 1
    21   11   12 2
    22   12   13 1
    23   13   14 2
    24   13   16 1
    25   14   15 1
    26   14   30 1
    27   16   21 ar
    28   16   17 ar
    29   17   18 ar
    30   17   31 1
    31   18   19 ar
    32   18   32 1
    33   19   20 ar
    34   19   22 1
    35   20   21 ar
    36   20   33 1
    37   21   34 1
    38   35   37 1
    39   36   37 1
    40   37   38 1
@<TRIPOS>MOLECULE
ZINC35379784
   32    33     0     0     0
SMALL
USER_CHARGES

@<TRIPOS>ATOM
      1 C1         -0.0187    1.5258    0.0104 C.3       1 <0>        -0.1571
      2 C2          0.0021   -0.0041    0.0020 C.3       1 <0>         0.0507
      3 O1          0.6932   -0.4774    1.1597 O.3       1 <0>        -0.3055
      4 C3          0.8020   -1.8242    1.3057 C.ar      1 <0>         0.1728
      5 C4          0.2597   -2.6726    0.3512 C.ar      1 <0>        -0.2036
      6 C5          0.3721   -4.0412    0.5016 C.ar      1 <0>        -0.0326
      7 C6          1.0238   -4.5657    1.6025 C.ar      1 <0>        -0.2044
      8 C7          1.5647   -3.7223    2.5553 C.ar      1 <0>        -0.0693
      9 C8          1.4604   -2.3529    2.4064 C.ar      1 <0>        -0.1418
     10 C9          1.1444   -6.0591    1.7643 C.3       1 <0>         0.2019
     11 H1          0.3892   -6.5530    1.1529 H         1 <0>         0.1744
     12 C10         2.5158   -6.5029    1.3244 C.2       1 <0>        -0.0803
     13 C11         2.8217   -7.0471    0.1330 C.2       1 <0>        -0.1293
     14 C12         4.2110   -7.3096    0.1469 C.2       1 <0>        -0.1550
     15 C13         4.6713   -6.9097    1.3472 C.2       1 <0>         0.0045
     16 O2          3.6409   -6.4168    2.0537 O.3       1 <0>        -0.1646
     17 Br1         6.4652   -7.0170    1.9356 Br        1 <0>         0.0862
     18 N1          0.9431   -6.4167    3.1748 N.4       1 <0>        -0.6376
     19 H2          1.0039    1.9031    0.0027 H         1 <0>         0.0705
     20 H3         -0.5459    1.8868   -0.8726 H         1 <0>         0.0865
     21 H4         -0.5289    1.8773    0.9072 H         1 <0>         0.0704
     22 H5         -1.0205   -0.3814    0.0098 H         1 <0>         0.0693
     23 H6          0.5123   -0.3556   -0.8948 H         1 <0>         0.0691
     24 H7         -0.2501   -2.2634   -0.5084 H         1 <0>         0.1438
     25 H8         -0.0499   -4.7020   -0.2411 H         1 <0>         0.1396
     26 H9          2.0730   -4.1345    3.4145 H         1 <0>         0.1272
     27 H10         1.8869   -1.6945    3.1487 H         1 <0>         0.1456
     28 H11         2.1373   -7.2457   -0.6785 H         1 <0>         0.1711
     29 H12         4.7914   -7.7474   -0.6517 H         1 <0>         0.1744
     30 H13         1.0239   -7.4166    3.2832 H         1 <0>         0.4420
     31 H14         1.6422   -5.9595    3.7408 H         1 <0>         0.4361
     32 H15         0.0249   -6.1195    3.4694 H         1 <0>         0.4447
@<TRIPOS>BOND
     1    1    2 1
     2    1   19 1
     3    1   20 1
     4    1   21 1
     5    2    3 1
     6    2   22 1
     7    2   23 1
     8    3    4 1
     9    4    9 ar
    10    4    5 ar
    11    5    6 ar
    12    5   24 1
    13    6    7 ar
    14    6   25 1
    15    7    8 ar
    16    7   10 1
    17    8    9 ar
    18    8   26 1
    19    9   27 1
    20   10   11 1
    21   10   12 1
    22   10   18 1
    23   12   16 1
    24   12   13 2
    25   13   14 1
    26   13   28 1
    27   14   15 2
    28   14   29 1
    29   15   16 1
    30   15   17 1
    31   18   30 1
    32   18   31 1
    33   18   32 1
@<TRIPOS>MOLECULE
ZINC37907315
   34    35     0     0     0
SMALL
USER_CHARGES

@<TRIPOS>ATOM
      1 C1         -0.0187    1.5258    0.0104 C.3       1 <0>        -0.1825
      2 C2          0.0021   -0.0041    0.0020 C.3       1 <0>         0.0666
      3 H1         -1.0205   -0.3814    0.0098 H         1 <0>         0.1546
      4 C3          0.7074   -0.4901   -1.2379 C.ar      1 <0>        -0.1087
      5 C4          2.0244   -0.9044   -1.1665 C.ar      1 <0>        -0.1254
      6 C5          2.6713   -1.3507   -2.3035 C.ar      1 <0>        -0.0831
      7 C6          2.0017   -1.3828   -3.5128 C.ar      1 <0>        -0.0888
      8 C7          0.6852   -0.9688   -3.5851 C.ar      1 <0>        -0.0726
      9 C8          0.0356   -0.5270   -2.4462 C.ar      1 <0>        -0.0735
     10 Br1        -1.7679    0.0330   -2.5431 Br        1 <0>        -0.0208
     11 N1          0.7126   -0.4907    1.1921 N.4       1 <0>        -0.5035
     12 C9         -0.0398   -0.1189    2.3978 C.3       1 <0>         0.1229
     13 H2         -0.2092    0.9579    2.4027 H         1 <0>         0.1607
     14 C10        -1.3855   -0.8468    2.4039 C.3       1 <0>        -0.1810
     15 C11         0.7479   -0.5091    3.6218 C.2       1 <0>         0.0226
     16 C12         0.6373    0.0737    4.8885 C.2       1 <0>        -0.2478
     17 C13         1.5086   -0.5530    5.7126 C.2       1 <0>         0.0878
     18 N2          2.1478   -1.4988    4.9930 N.pl3     1 <0>        -0.4472
     19 H3          2.8295   -2.1042    5.3241 H         1 <0>         0.4526
     20 N3          1.6493   -1.4553    3.6845 N.2       1 <0>        -0.2971
     21 H4          1.0039    1.9031    0.0027 H         1 <0>         0.0877
     22 H5         -0.5459    1.8868   -0.8726 H         1 <0>         0.1119
     23 H6         -0.5289    1.8773    0.9072 H         1 <0>         0.0916
     24 H7          2.5479   -0.8792   -0.2222 H         1 <0>         0.1256
     25 H8          3.7002   -1.6740   -2.2474 H         1 <0>         0.1437
     26 H9          2.5076   -1.7312   -4.4010 H         1 <0>         0.1468
     27 H10         0.1622   -0.9939   -4.5297 H         1 <0>         0.1483
     28 H11         0.7982   -1.4950    1.1455 H         1 <0>         0.4336
     29 H12        -1.9438   -0.5709    3.2985 H         1 <0>         0.1142
     30 H13        -1.9553   -0.5646    1.5185 H         1 <0>         0.0907
     31 H14        -1.2162   -1.9236    2.3989 H         1 <0>         0.0858
     32 H15        -0.0258    0.8816    5.1605 H         1 <0>         0.1623
     33 H16         1.6647   -0.3350    6.7588 H         1 <0>         0.1938
     34 H17         1.6317   -0.0761    1.2281 H         1 <0>         0.4284
@<TRIPOS>BOND
     1    1    2 1
     2    1   21 1
     3    1   22 1
     4    1   23 1
     5    2    3 1
     6    2    4 1
     7    2   11 1
     8    4    9 ar
     9    4    5 ar
    10    5    6 ar
    11    5   24 1
    12    6    7 ar
    13    6   25 1
    14    7    8 ar
    15    7   26 1
    16    8    9 ar
    17    8   27 1
    18    9   10 1
    19   11   12 1
    20   11   28 1
    21   11   34 1
    22   12   13 1
    23   12   14 1
    24   12   15 1
    25   14   29 1
    26   14   30 1
    27   14   31 1
    28   15   20 2
    29   15   16 1
    30   16   17 2
    31   16   32 1
    32   17   18 1
    33   17   33 1
    34   18   19 1
    35   18   20 1
@<TRIPOS>MOLECULE
ZINC49162261
   36    38     0     0     0
SMALL
USER_CHARGES

@<TRIPOS>ATOM
      1 C1         -0.0184    1.5028    0.0103 C.3       1 <0>        -0.0881
      2 C2          0.0021   -0.0041    0.0020 C.2       1 <0>        -0.0732
      3 C3         -1.0392   -0.8719    0.0017 C.2       1 <0>        -0.1843
      4 C4         -0.7802   -2.2296   -0.0075 C.2       1 <0>        -0.0642
      5 C5          0.5074   -2.6532   -0.0160 C.2       1 <0>        -0.2655
      6 S1          1.4039   -1.1093   -0.0179 S.3       1 <0>         0.0454
      7 C6          1.0430   -4.0617   -0.0269 C.3       1 <0>         0.1215
      8 H1          0.2712   -4.7467    0.3242 H         1 <0>         0.1684
      9 C7          1.4518   -4.4409   -1.4516 C.3       1 <0>        -0.1776
     10 N1          2.2129   -4.1475    0.8574 N.4       1 <0>        -0.4909
     11 C8          2.6625   -5.5436    0.9407 C.3       1 <0>         0.0467
     12 H2          2.8405   -5.9465   -0.0563 H         1 <0>         0.1918
     13 C9          3.9118   -5.6481    1.7848 C.ar      1 <0>        -0.1972
     14 C10         5.1757   -5.1168    1.6565 C.ar      1 <0>        -0.0395
     15 C11         6.1408   -5.3925    2.6092 C.ar      1 <0>        -0.1110
     16 C12         5.8318   -6.2014    3.6876 C.ar      1 <0>        -0.0402
     17 C13         4.5659   -6.7358    3.8188 C.ar      1 <0>        -0.0522
     18 C14         3.5883   -6.4617    2.8626 C.ar      1 <0>         0.1720
     19 N2          2.2581   -6.8752    2.7731 N.am      1 <0>        -0.6392
     20 C15         1.6439   -6.3857    1.6791 C.2       1 <0>         0.5246
     21 O1          0.4934   -6.5800    1.3477 O.2       1 <0>        -0.4432
     22 Cl1         4.1899   -7.7502    5.1764 Cl        1 <0>        -0.0312
     23 H3          1.0042    1.8801    0.0026 H         1 <0>         0.0812
     24 H4         -0.5455    1.8639   -0.8728 H         1 <0>         0.0961
     25 H5         -0.5286    1.8543    0.9071 H         1 <0>         0.0954
     26 H6         -2.0560   -0.5079    0.0090 H         1 <0>         0.1507
     27 H7         -1.5916   -2.9424   -0.0076 H         1 <0>         0.1454
     28 H8          2.2236   -3.7560   -1.8027 H         1 <0>         0.0865
     29 H9          1.8393   -5.4597   -1.4595 H         1 <0>         0.0861
     30 H10         0.5838   -4.3773   -2.1078 H         1 <0>         0.1153
     31 H11         2.9573   -3.5760    0.4868 H         1 <0>         0.4327
     32 H12         5.4135   -4.4852    0.8133 H         1 <0>         0.1484
     33 H13         7.1327   -4.9767    2.5110 H         1 <0>         0.1581
     34 H14         6.5852   -6.4164    4.4310 H         1 <0>         0.1593
     35 H15         1.8256   -7.4504    3.4235 H         1 <0>         0.4379
     36 H16         1.9633   -3.8191    1.7783 H         1 <0>         0.4338
@<TRIPOS>BOND
     1    1    2 1
     2    1   23 1
     3    1   24 1
     4    1   25 1
     5    2    6 1
     6    2    3 2
     7    3    4 1
     8    3   26 1
     9    4    5 2
    10    4   27 1
    11    5    6 1
    12    5    7 1
    13    7    8 1
    14    7    9 1
    15    7   10 1
    16    9   28 1
    17    9   29 1
    18    9   30 1
    19   10   11 1
    20   10   31 1
    21   10   36 1
    22   11   12 1
    23   11   20 1
    24   11   13 1
    25   13   18 ar
    26   13   14 ar
    27   14   15 ar
    28   14   32 1
    29   15   16 ar
    30   15   33 1
    31   16   17 ar
    32   16   34 1
    33   17   18 ar
    34   17   22 1
    35   18   19 1
    36   19   20 am
    37   19   35 1
    38   20   21 2
@<TRIPOS>MOLECULE
ZINC57830445
   41    43     0     0     0
SMALL
USER_CHARGES

@<TRIPOS>ATOM
      1 C1         -0.0187    1.5258    0.0104 C.3       1 <0>        -0.1755
      2 C2          0.0021   -0.0041    0.0020 C.3       1 <0>         0.1192
      3 H1          0.5123   -0.3556   -0.8948 H         1 <0>         0.1271
      4 C3          0.7421   -0.5109    1.2415 C.3       1 <0>        -0.0301
      5 N1          0.8668   -1.9730    1.1737 N.4       1 <0>        -0.6377
      6 N2         -1.3723   -0.5112    0.0124 N.pl3     1 <0>        -0.5119
      7 C4         -1.9575   -1.3165   -0.9469 C.ar      1 <0>         0.0504
      8 C5         -1.5085   -1.8747   -2.1355 C.ar      1 <0>        -0.1322
      9 C6         -2.3586   -2.6552   -2.8930 C.ar      1 <0>         0.1043
     10 C7         -3.6654   -2.8862   -2.4725 C.ar      1 <0>         0.0782
     11 C8         -4.1271   -2.3400   -1.2959 C.ar      1 <0>        -0.0669
     12 C9         -3.2766   -1.5467   -0.5165 C.ar      1 <0>         0.0778
     13 N3         -3.4376   -0.8897    0.6566 N.2       1 <0>        -0.4643
     14 C10        -2.3186   -0.2808    0.9792 C.2       1 <0>         0.3356
     15 C11        -2.1134    0.5257    2.1869 C.2       1 <0>        -0.1741
     16 C12        -3.1177    0.6835    3.0696 C.2       1 <0>         0.0161
     17 C13        -2.9117    1.4933    4.2823 C.ar      1 <0>        -0.0958
     18 C14        -1.6765    2.1044    4.5175 C.ar      1 <0>        -0.1015
     19 C15        -1.4913    2.8611    5.6554 C.ar      1 <0>        -0.1230
     20 C16        -2.5242    3.0163    6.5632 C.ar      1 <0>        -0.0945
     21 C17        -3.7498    2.4145    6.3373 C.ar      1 <0>        -0.1183
     22 C18        -3.9521    1.6595    5.2011 C.ar      1 <0>        -0.0835
     23 F1         -4.4865   -3.6514   -3.2244 F         1 <0>        -0.1137
     24 F2         -1.9197   -3.1978   -4.0498 F         1 <0>        -0.1131
     25 H2          1.0039    1.9031    0.0027 H         1 <0>         0.0951
     26 H3         -0.5459    1.8868   -0.8726 H         1 <0>         0.0895
     27 H4         -0.5289    1.8773    0.9072 H         1 <0>         0.0828
     28 H5          1.7350   -0.0630    1.2804 H         1 <0>         0.1622
     29 H6          0.1838   -0.2350    2.1361 H         1 <0>         0.1453
     30 H7         -0.0524   -2.3877    1.1377 H         1 <0>         0.4353
     31 H8          1.3836   -2.2284    0.3456 H         1 <0>         0.4373
     32 H9         -0.4959   -1.6985   -2.4674 H         1 <0>         0.1469
     33 H10        -5.1421   -2.5228   -0.9753 H         1 <0>         0.1626
     34 H11        -1.1568    0.9929    2.3682 H         1 <0>         0.1383
     35 H12        -4.0744    0.2163    2.8883 H         1 <0>         0.1435
     36 H13        -0.8694    1.9838    3.8101 H         1 <0>         0.1197
     37 H14        -0.5375    3.3335    5.8387 H         1 <0>         0.1288
     38 H15        -2.3730    3.6098    7.4528 H         1 <0>         0.1303
     39 H16        -4.5512    2.5402    7.0503 H         1 <0>         0.1326
     40 H17        -4.9104    1.1941    5.0239 H         1 <0>         0.1325
     41 H18         1.3548   -2.3073    1.9911 H         1 <0>         0.4447
@<TRIPOS>BOND
     1    1    2 1
     2    1   25 1
     3    1   26 1
     4    1   27 1
     5    2    3 1
     6    2    4 1
     7    2    6 1
     8    4    5 1
     9    4   28 1
    10    4   29 1
    11    5   30 1
    12    5   31 1
    13    5   41 1
    14    6   14 1
    15    6    7 1
    16    7   12 ar
    17    7    8 ar
    18    8    9 ar
    19    8   32 1
    20    9   10 ar
    21    9   24 1
    22   10   11 ar
    23   10   23 1
    24   11   12 ar
    25   11   33 1
    26   12   13 1
    27   13   14 2
    28   14   15 1
    29   15   16 2
    30   15   34 1
    31   16   17 1
    32   16   35 1
    33   17   22 ar
    34   17   18 ar
    35   18   19 ar
    36   18   36 1
    37   19   20 ar
    38   19   37 1
    39   20   21 ar
    40   20   38 1
    41   21   22 ar
    42   21   39 1
    43   22   40 1
@<TRIPOS>MOLECULE
ZINC21949402
   30    30     0     0     0
SMALL
USER_CHARGES
2-[(1S)-2-amino-1-hydroxy-ethyl]-4-ethoxy-phenol
@<TRIPOS>ATOM
      1 C1         -0.2950   -4.7574   -3.7196 C.3       1 <0>        -0.1569
      2 C2         -0.1658   -4.1786   -2.3093 C.3       1 <0>         0.0510
      3 O1         -0.1919   -2.7514   -2.3759 O.3       1 <0>        -0.3133
      4 C3         -0.0868   -2.0764   -1.2001 C.ar      1 <0>         0.0982
      5 C4          0.0387   -2.7749   -0.0082 C.ar      1 <0>        -0.1476
      6 C5          0.1459   -2.0894    1.1860 C.ar      1 <0>        -0.1143
      7 C6          0.1276   -0.7024    1.1935 C.ar      1 <0>         0.1303
      8 C7          0.0021   -0.0041    0.0020 C.ar      1 <0>        -0.1685
      9 C8         -0.1099   -0.6899   -1.1920 C.ar      1 <0>        -0.0815
     10 C9         -0.0184    1.5028    0.0103 C.3       1 <0>         0.1474
     11 H1         -0.5825    1.8746    0.8784 H         1 <0>         0.0846
     12 C10         1.4170    2.0324   -0.0006 C.3       1 <0>        -0.0397
     13 N1          1.4001    3.4956    0.1282 N.4       1 <0>        -0.6869
     14 O2         -0.7095    1.9761   -1.1474 O.3       1 <0>        -0.5670
     15 O3          0.2322   -0.0274    2.3694 O.3       1 <0>        -0.4957
     16 H2         -0.2749   -5.8560   -3.6683 H         1 <0>         0.0846
     17 H3          0.5424   -4.4039   -4.3391 H         1 <0>         0.0684
     18 H4         -1.2453   -4.4284   -4.1653 H         1 <0>         0.0693
     19 H5         -1.0032   -4.5321   -1.6898 H         1 <0>         0.0661
     20 H6          0.7845   -4.5076   -1.8636 H         1 <0>         0.0655
     21 H7          0.0530   -3.8548   -0.0141 H         1 <0>         0.1427
     22 H8          0.2436   -2.6333    2.1139 H         1 <0>         0.1418
     23 H9         -0.2118   -0.1461   -2.1196 H         1 <0>         0.1425
     24 H10         1.9750    1.5966    0.8413 H         1 <0>         0.1411
     25 H11         1.9037    1.7532   -0.9467 H         1 <0>         0.1451
     26 H12         2.4321    3.8763    0.1204 H         1 <0>         0.4671
     27 H13         0.9134    3.7748    1.0744 H         1 <0>         0.4561
     28 H14        -0.8264    3.0570   -1.3146 H         1 <0>         0.4078
     29 H15         0.2177    1.0725    2.3754 H         1 <0>         0.4097
     30 H16         0.8421    3.9313   -0.7137 H         1 <0>         0.4520
@<TRIPOS>BOND
     1    1    2 1
     2    1   16 1
     3    1   17 1
     4    1   18 1
     5    2    3 1
     6    2   19 1
     7    2   20 1
     8    3    4 1
     9    4    9 ar
    10    4    5 ar
    11    5    6 ar
    12    5   21 1
    13    6    7 ar
    14    6   22 1
    15    7    8 ar
    16    7   15 1
    17    8    9 ar
    18    8   10 1
    19    9   23 1
    20   10   11 1
    21   10   12 1
    22   10   14 1
    23   12   13 1
    24   12   24 1
    25   12   25 1
    26   13   26 1
    27   13   27 1
    28   13   30 1
    29   14   28 1
    30   15   29 1
@<TRIPOS>MOLECULE
ZINC41280554
   40    40     0     0     0
SMALL
USER_CHARGES

@<TRIPOS>ATOM
      1 C1          0.9433    1.4883    0.1958 C.3       1 <0>        -0.1548
      2 C2          0.8283   -0.0370    0.1648 C.3       1 <0>         0.0528
      3 O1          1.2020   -0.5167   -1.1284 O.3       1 <0>        -0.3089
      4 C3          1.1548   -1.8605   -1.3253 C.ar      1 <0>         0.1532
      5 C4          0.7514   -2.6999   -0.2968 C.ar      1 <0>        -0.2065
      6 C5          0.7038   -4.0653   -0.4996 C.ar      1 <0>        -0.0126
      7 C6          1.0579   -4.5960   -1.7266 C.ar      1 <0>        -0.1780
      8 C7          1.4606   -3.7618   -2.7528 C.ar      1 <0>        -0.0788
      9 C8          1.5044   -2.3949   -2.5568 C.ar      1 <0>        -0.1211
     10 C9          1.9375   -1.4857   -3.6778 C.3       1 <0>        -0.1082
     11 C10         1.0050   -6.0861   -1.9451 C.3       1 <0>         0.2032
     12 C11         2.1758   -6.7501   -1.2177 C.3       1 <0>        -0.1598
     13 C12         1.0991   -6.3856   -3.4426 C.3       1 <0>        -0.0204
     14 N1          1.0417   -7.8378   -3.6561 N.3       1 <0>        -0.4792
     15 N2          1.1287   -8.1603   -5.0712 N.4       1 <0>        -0.5011
     16 O2         -0.2265   -6.5992   -1.4332 O.3       1 <0>        -0.5335
     17 C13         0.2663   -4.9775    0.6172 C.3       1 <0>        -0.1248
     18 H1          1.9721    1.7795   -0.0163 H         1 <0>         0.0686
     19 H2          0.2816    1.9180   -0.5563 H         1 <0>         0.0684
     20 H3          0.6582    1.8542    1.1822 H         1 <0>         0.0833
     21 H4          1.4899   -0.4667    0.9169 H         1 <0>         0.0651
     22 H5         -0.2005   -0.3282    0.3770 H         1 <0>         0.0649
     23 H6          0.4752   -2.2859    0.6617 H         1 <0>         0.1344
     24 H7          1.7369   -4.1787   -3.7101 H         1 <0>         0.1230
     25 H8          3.0178   -1.3468   -3.6363 H         1 <0>         0.0710
     26 H9          1.6651   -1.9327   -4.6340 H         1 <0>         0.0630
     27 H10         1.4427   -0.5200   -3.5742 H         1 <0>         0.0747
     28 H11         2.1088   -6.5367   -0.1509 H         1 <0>         0.0917
     29 H12         2.1376   -7.8279   -1.3758 H         1 <0>         0.0660
     30 H13         3.1152   -6.3587   -1.6081 H         1 <0>         0.0784
     31 H14         0.2675   -5.9089   -3.9614 H         1 <0>         0.1163
     32 H15         2.0405   -5.9980   -3.8322 H         1 <0>         0.0880
     33 H16         1.7643   -8.3091   -3.1328 H         1 <0>         0.3980
     34 H17         2.0003   -7.8130   -5.4424 H         1 <0>         0.4103
     35 H18         1.0871   -9.1613   -5.1912 H         1 <0>         0.4515
     36 H19        -1.0133   -6.2217   -1.8497 H         1 <0>         0.3843
     37 H20        -0.8184   -5.0836    0.5959 H         1 <0>         0.0787
     38 H21         0.7295   -5.9559    0.4898 H         1 <0>         0.0846
     39 H22         0.5711   -4.5530    1.5737 H         1 <0>         0.0641
     40 H23         0.3590   -7.7305   -5.5620 H         1 <0>         0.4505
@<TRIPOS>BOND
     1    1    2 1
     2    1   18 1
     3    1   19 1
     4    1   20 1
     5    2    3 1
     6    2   21 1
     7    2   22 1
     8    3    4 1
     9    4    9 ar
    10    4    5 ar
    11    5    6 ar
    12    5   23 1
    13    6    7 ar
    14    6   17 1
    15    7    8 ar
    16    7   11 1
    17    8    9 ar
    18    8   24 1
    19    9   10 1
    20   10   25 1
    21   10   26 1
    22   10   27 1
    23   11   12 1
    24   11   13 1
    25   11   16 1
    26   12   28 1
    27   12   29 1
    28   12   30 1
    29   13   14 1
    30   13   31 1
    31   13   32 1
    32   14   15 1
    33   14   33 1
    34   15   34 1
    35   15   35 1
    36   15   40 1
    37   16   36 1
    38   17   37 1
    39   17   38 1
    40   17   39 1
@<TRIPOS>MOLECULE
ZINC44465109
   26    26     0     0     0
SMALL
USER_CHARGES

@<TRIPOS>ATOM
      1 C1         -0.0167    1.3801    0.0096 C.ar      1 <0>        -0.1202
      2 C2          1.1700    2.0878    0.0021 C.ar      1 <0>        -0.1022
      3 C3          2.3803    1.4108   -0.0131 C.ar      1 <0>         0.1135
      4 C4          2.3976    0.0236   -0.0208 C.ar      1 <0>        -0.1293
      5 C5          1.2098   -0.6813   -0.0132 C.ar      1 <0>        -0.1577
      6 C6          0.0021   -0.0041    0.0020 C.ar      1 <0>         0.1066
      7 F1         -1.1590   -0.6948    0.0099 F         1 <0>        -0.1257
      8 C7          3.7118   -0.7137   -0.0378 C.3       1 <0>        -0.0959
      9 C8          4.2323   -0.8614    1.3933 C.3       1 <0>         0.0392
     10 H1          4.2913    0.1211    1.8617 H         1 <0>         0.1460
     11 C9          5.6233   -1.4981    1.3670 C.3       1 <0>         0.0507
     12 O1          6.1580   -1.5296    2.6918 O.3       1 <0>        -0.5810
     13 N1          3.3172   -1.7159    2.1616 N.4       1 <0>        -0.6352
     14 O2          3.5486    2.1059   -0.0210 O.3       1 <0>        -0.4860
     15 H2         -0.9593    1.9070    0.0260 H         1 <0>         0.1518
     16 H3          1.1551    3.1677    0.0077 H         1 <0>         0.1513
     17 H4          1.2230   -1.7612   -0.0195 H         1 <0>         0.1431
     18 H5          3.5686   -1.7014   -0.4760 H         1 <0>         0.1056
     19 H6          4.4347   -0.1542   -0.6314 H         1 <0>         0.1334
     20 H7          5.5503   -2.5146    0.9804 H         1 <0>         0.0761
     21 H8          6.2794   -0.9111    0.7242 H         1 <0>         0.0990
     22 H9          7.0401   -1.9213    2.7507 H         1 <0>         0.4129
     23 H10         3.2626   -2.6254    1.7280 H         1 <0>         0.4324
     24 H11         3.6604   -1.8133    3.1054 H         1 <0>         0.4438
     25 H12         3.8952    2.3025    0.8601 H         1 <0>         0.3948
     26 H13         2.3998   -1.2960    2.1790 H         1 <0>         0.4329
@<TRIPOS>BOND
     1    1    6 ar
     2    1    2 ar
     3    1   15 1
     4    2    3 ar
     5    2   16 1
     6    3    4 ar
     7    3   14 1
     8    4    5 ar
     9    4    8 1
    10    5    6 ar
    11    5   17 1
    12    6    7 1
    13    8    9 1
    14    8   18 1
    15    8   19 1
    16    9   10 1
    17    9   11 1
    18    9   13 1
    19   11   12 1
    20   11   20 1
    21   11   21 1
    22   12   22 1
    23   13   23 1
    24   13   24 1
    25   13   26 1
    26   14   25 1
@<TRIPOS>MOLECULE
ZINC51327076
   40    40     0     0     0
SMALL
USER_CHARGES

@<TRIPOS>ATOM
      1 C1          0.2223    0.0229   -1.7221 C.3       1 <0>        -0.1877
      2 C2         -0.2474    0.0841   -0.2673 C.3       1 <0>         0.0149
      3 C3         -0.1223    1.5189    0.2491 C.3       1 <0>        -0.2002
      4 N1         -1.6501   -0.3446   -0.1871 N.4       1 <0>        -0.3773
      5 C4         -1.7082   -1.8051   -0.0407 C.3       1 <0>        -0.0075
      6 C5         -1.1080   -2.2068    1.3081 C.3       1 <0>         0.0460
      7 O1         -1.8918   -1.6472    2.3638 O.3       1 <0>        -0.5791
      8 C6         -2.3545    0.0530   -1.4133 C.3       1 <0>        -0.0520
      9 C7         -2.4606    1.5783   -1.4688 C.3       1 <0>         0.1245
     10 H1         -1.4623    2.0094   -1.5443 H         1 <0>         0.1405
     11 C8         -3.2743    1.9819   -2.6713 C.ar      1 <0>        -0.0901
     12 C9         -4.6542    2.0266   -2.5882 C.ar      1 <0>        -0.1689
     13 C10        -5.4046    2.3959   -3.6892 C.ar      1 <0>        -0.0598
     14 C11        -4.7779    2.7220   -4.8762 C.ar      1 <0>        -0.1823
     15 C12        -3.3924    2.6787   -4.9629 C.ar      1 <0>         0.2269
     16 C13        -2.6412    2.3122   -3.8531 C.ar      1 <0>        -0.1883
     17 N2         -2.7555    3.0079   -6.1616 N.pl3     1 <0>        -0.8726
     18 O2         -3.0967    2.0551   -0.2813 O.3       1 <0>        -0.5459
     19 H2          1.2934    0.2197   -1.7667 H         1 <0>         0.1061
     20 H3          0.0177   -0.9676   -2.1286 H         1 <0>         0.0800
     21 H4         -0.3097    0.7728   -2.3075 H         1 <0>         0.0834
     22 H5          0.3698   -0.5764    0.3419 H         1 <0>         0.1364
     23 H6         -0.8513    2.1519   -0.2568 H         1 <0>         0.0997
     24 H7         -0.3090    1.5362    1.3228 H         1 <0>         0.0847
     25 H8          0.8826    1.8907    0.0491 H         1 <0>         0.1026
     26 H9         -2.7463   -2.1341   -0.0889 H         1 <0>         0.1373
     27 H10        -1.1409   -2.2737   -0.8449 H         1 <0>         0.1407
     28 H11        -1.1042   -3.2933    1.3950 H         1 <0>         0.0955
     29 H12        -0.0863   -1.8333    1.3768 H         1 <0>         0.0714
     30 H13        -1.5686   -1.8615    3.2497 H         1 <0>         0.4093
     31 H14        -1.8018   -0.3046   -2.2821 H         1 <0>         0.1477
     32 H15        -3.3544   -0.3810   -1.4150 H         1 <0>         0.1349
     33 H16        -5.1466    1.7721   -1.6613 H         1 <0>         0.1188
     34 H17        -6.4819    2.4291   -3.6212 H         1 <0>         0.1302
     35 H18        -5.3647    3.0101   -5.7359 H         1 <0>         0.1280
     36 H19        -1.5635    2.2813   -3.9161 H         1 <0>         0.1221
     37 H20        -3.2809    3.2671   -6.9347 H         1 <0>         0.4049
     38 H21        -1.7878    2.9772   -6.2210 H         1 <0>         0.4013
     39 H22        -3.9909    1.7115   -0.1491 H         1 <0>         0.3891
     40 H23        -2.0899    0.0910    0.6097 H         1 <0>         0.4347
@<TRIPOS>BOND
     1    1    2 1
     2    1   19 1
     3    1   20 1
     4    1   21 1
     5    2    3 1
     6    2    4 1
     7    2   22 1
     8    3   23 1
     9    3   24 1
    10    3   25 1
    11    4    5 1
    12    4    8 1
    13    4   40 1
    14    5    6 1
    15    5   26 1
    16    5   27 1
    17    6    7 1
    18    6   28 1
    19    6   29 1
    20    7   30 1
    21    8    9 1
    22    8   31 1
    23    8   32 1
    24    9   10 1
    25    9   11 1
    26    9   18 1
    27   11   16 ar
    28   11   12 ar
    29   12   13 ar
    30   12   33 1
    31   13   14 ar
    32   13   34 1
    33   14   15 ar
    34   14   35 1
    35   15   16 ar
    36   15   17 1
    37   16   36 1
    38   17   37 1
    39   17   38 1
    40   18   39 1
@<TRIPOS>MOLECULE
ZINC58479333
   39    39     0     0     0
SMALL
USER_CHARGES

@<TRIPOS>ATOM
      1 C1          0.7734   -0.1817    1.2735 C.3       1 <0>        -0.1539
      2 C2          0.0863    0.0140   -0.0795 C.3       1 <0>        -0.1405
      3 C3         -1.3020   -0.6281   -0.0440 C.3       1 <0>         0.0263
      4 H1         -1.8746   -0.2102    0.7840 H         1 <0>         0.1278
      5 C4         -1.1601   -2.1397    0.1456 C.3       1 <0>        -0.1827
      6 N1         -1.9995   -0.3565   -1.3080 N.4       1 <0>        -0.3274
      7 C5         -3.3750   -0.8660   -1.2276 C.3       1 <0>        -0.0137
      8 C6         -4.0621   -0.6958   -2.5840 C.3       1 <0>        -0.1800
      9 C7         -2.0260    1.0221   -1.5388 C.ar      1 <0>        -0.0420
     10 C8         -2.7674    1.8454   -0.7156 C.ar      1 <0>        -0.0450
     11 C9         -2.7969    3.2089   -0.9394 C.ar      1 <0>        -0.1515
     12 C10        -2.0800    3.7604   -1.9952 C.ar      1 <0>         0.2568
     13 C11        -1.3323    2.9419   -2.8276 C.ar      1 <0>        -0.1488
     14 C12        -1.2981    1.5664   -2.5980 C.ar      1 <0>        -0.0698
     15 C13        -0.4979    0.6872   -3.4773 C.2       1 <0>         0.5708
     16 O1         -0.5548   -0.5196   -3.3444 O.2       1 <0>        -0.5433
     17 N2          0.2945    1.2241   -4.4262 N.am      1 <0>        -0.8169
     18 N3         -2.1134    5.1393   -2.2175 N.pl3     1 <0>        -0.8511
     19 H2          1.7900    0.2083    1.2245 H         1 <0>         0.0730
     20 H3          0.2165    0.3512    2.0442 H         1 <0>         0.0648
     21 H4          0.8030   -1.2440    1.5157 H         1 <0>         0.0685
     22 H5         -0.0115    1.0796   -0.2866 H         1 <0>         0.0817
     23 H6          0.6836   -0.4549   -0.8615 H         1 <0>         0.0821
     24 H7         -0.6426   -2.3412    1.0834 H         1 <0>         0.1061
     25 H8         -2.1492   -2.5971    0.1708 H         1 <0>         0.0803
     26 H9         -0.5875   -2.5576   -0.6825 H         1 <0>         0.0816
     27 H10        -3.3561   -1.9225   -0.9599 H         1 <0>         0.1311
     28 H11        -3.9250   -0.3089   -0.4692 H         1 <0>         0.1213
     29 H12        -5.0827   -1.0738   -2.5242 H         1 <0>         0.1024
     30 H13        -4.0810    0.3607   -2.8516 H         1 <0>         0.0757
     31 H14        -3.5120   -1.2529   -3.3423 H         1 <0>         0.0776
     32 H15        -3.3266    1.4227    0.1059 H         1 <0>         0.1505
     33 H16        -3.3791    3.8480   -0.2921 H         1 <0>         0.1516
     34 H17        -0.7749    3.3682   -3.6486 H         1 <0>         0.1473
     35 H18         0.3398    2.1872   -4.5323 H         1 <0>         0.4137
     36 H19         0.8194    0.6474   -5.0030 H         1 <0>         0.4222
     37 H20        -2.6368    5.7119   -1.6352 H         1 <0>         0.4138
     38 H21        -1.6132    5.5240   -2.9542 H         1 <0>         0.4116
     39 H22        -1.5148   -0.8150   -2.0649 H         1 <0>         0.4281
@<TRIPOS>BOND
     1    1    2 1
     2    1   19 1
     3    1   20 1
     4    1   21 1
     5    2    3 1
     6    2   22 1
     7    2   23 1
     8    3    4 1
     9    3    5 1
    10    3    6 1
    11    5   24 1
    12    5   25 1
    13    5   26 1
    14    6    7 1
    15    6    9 1
    16    6   39 1
    17    7    8 1
    18    7   27 1
    19    7   28 1
    20    8   29 1
    21    8   30 1
    22    8   31 1
    23    9   14 ar
    24    9   10 ar
    25   10   11 ar
    26   10   32 1
    27   11   12 ar
    28   11   33 1
    29   12   13 ar
    30   12   18 1
    31   13   14 ar
    32   13   34 1
    33   14   15 1
    34   15   16 2
    35   15   17 am
    36   17   35 1
    37   17   36 1
    38   18   37 1
    39   18   38 1
@<TRIPOS>MOLECULE
ZINC35101381
   35    34     0     0     0
SMALL
USER_CHARGES

@<TRIPOS>ATOM
      1 C1         -0.0187    1.5258    0.0104 C.3       1 <0>        -0.1685
      2 C2          0.0021   -0.0041    0.0020 C.3       1 <0>         0.1258
      3 N1          0.7106   -0.4894    1.1889 N.am      1 <0>        -0.7267
      4 C3          0.8538   -1.8138    1.3937 C.2       1 <0>         0.6901
      5 O1          0.3950   -2.6055    0.5938 O.2       1 <0>        -0.5162
      6 N2          1.5056   -2.2602    2.4856 N.am      1 <0>        -0.6755
      7 C4          1.6487   -3.5846    2.6904 C.2       1 <0>         0.5131
      8 O2          1.1911   -4.3744    1.8925 O.2       1 <0>        -0.4494
      9 C5          2.3776   -4.0839    3.9113 C.3       1 <0>         0.0078
     10 H1          1.8674   -3.7323    4.8081 H         1 <0>         0.1722
     11 C6          3.8130   -3.5543    3.9004 C.3       1 <0>        -0.1845
     12 N3          2.3975   -5.5527    3.9032 N.4       1 <0>        -0.4925
     13 C7          3.0014   -6.0411    5.1501 C.3       1 <0>        -0.0490
     14 C8          3.0221   -7.5709    5.1417 C.3       1 <0>         0.0820
     15 H2          3.6084   -7.9217    4.2924 H         1 <0>         0.1259
     16 C9          3.6511   -8.0796    6.4404 C.3       1 <0>        -0.1889
     17 O3          1.6855   -8.0648    5.0344 O.3       1 <0>        -0.5549
     18 H3          1.0039    1.9031    0.0027 H         1 <0>         0.0651
     19 H4         -0.5459    1.8868   -0.8726 H         1 <0>         0.0843
     20 H5         -0.5289    1.8773    0.9072 H         1 <0>         0.0652
     21 H6         -1.0205   -0.3814    0.0098 H         1 <0>         0.0756
     22 H7          0.5123   -0.3556   -0.8948 H         1 <0>         0.0756
     23 H8          1.0768    0.1425    1.8273 H         1 <0>         0.4027
     24 H9          1.8717   -1.6284    3.1240 H         1 <0>         0.4174
     25 H10         4.3232   -3.9058    3.0036 H         1 <0>         0.0939
     26 H11         3.7982   -2.4644    3.9064 H         1 <0>         0.1129
     27 H12         4.3402   -3.9153    4.7835 H         1 <0>         0.1024
     28 H13         1.4538   -5.9014    3.8274 H         1 <0>         0.4404
     29 H14         4.0209   -5.6643    5.2320 H         1 <0>         0.1471
     30 H15         2.4151   -5.6903    5.9995 H         1 <0>         0.1391
     31 H16         3.0648   -7.7288    7.2897 H         1 <0>         0.0725
     32 H17         3.6659   -9.1695    6.4344 H         1 <0>         0.0895
     33 H18         4.6706   -7.7028    6.5223 H         1 <0>         0.0806
     34 H19         1.1058   -7.7913    5.7584 H         1 <0>         0.3900
     35 H20         2.9402   -5.8774    3.1170 H         1 <0>         0.4352
@<TRIPOS>BOND
     1    1    2 1
     2    1   18 1
     3    1   19 1
     4    1   20 1
     5    2    3 1
     6    2   21 1
     7    2   22 1
     8    3    4 am
     9    3   23 1
    10    4    5 2
    11    4    6 am
    12    6    7 am
    13    6   24 1
    14    7    8 2
    15    7    9 1
    16    9   10 1
    17    9   11 1
    18    9   12 1
    19   11   25 1
    20   11   26 1
    21   11   27 1
    22   12   13 1
    23   12   28 1
    24   12   35 1
    25   13   14 1
    26   13   29 1
    27   13   30 1
    28   14   15 1
    29   14   16 1
    30   14   17 1
    31   16   31 1
    32   16   32 1
    33   16   33 1
    34   17   34 1
@<TRIPOS>MOLECULE
ZINC40367041
   35    35     0     0     0
SMALL
USER_CHARGES

@<TRIPOS>ATOM
      1 C1          0.2135    0.7648    1.5143 C.3       1 <0>        -0.1583
      2 C2          0.0368   -0.6396    0.9336 C.3       1 <0>        -0.1300
      3 C3          0.4090   -0.6285   -0.5504 C.3       1 <0>         0.1251
      4 H1         -0.1967    0.1130   -1.0714 H         1 <0>         0.1126
      5 C4          0.1507   -2.0115   -1.1515 C.3       1 <0>        -0.0198
      6 N1          0.6190   -2.0357   -2.5436 N.4       1 <0>        -0.6380
      7 N2          1.8270   -0.2900   -0.6956 N.pl3     1 <0>        -1.1318
      8 S1          2.2806    0.9833   -1.6523 S.o2      1 <0>         2.7178
      9 O1          3.6985    1.0532   -1.5900 O.2       1 <0>        -0.9321
     10 O2          1.5781    0.8401   -2.8791 O.2       1 <0>        -0.9750
     11 C5          1.6701    2.4504   -0.8907 C.2       1 <0>        -0.8243
     12 C6          0.5088    3.0778   -1.1884 C.2       1 <0>         0.2190
     13 N3          0.4077    4.1583   -0.3862 N.pl3     1 <0>        -0.4502
     14 H2         -0.3232    4.7959   -0.3772 H         1 <0>         0.4478
     15 N4          1.5445    4.1961    0.4314 N.2       1 <0>        -0.2746
     16 C7          2.2975    3.1687    0.1324 C.2       1 <0>         0.1708
     17 C8          3.6152    2.8218    0.7760 C.3       1 <0>        -0.0956
     18 C9         -0.4924    2.6471   -2.2292 C.3       1 <0>        -0.1404
     19 H3          1.2667    1.0431    1.4781 H         1 <0>         0.0636
     20 H4         -0.3704    1.4758    0.9297 H         1 <0>         0.0531
     21 H5         -0.1300    0.7761    2.5487 H         1 <0>         0.0699
     22 H6          0.6843   -1.3368    1.4653 H         1 <0>         0.0859
     23 H7         -1.0018   -0.9510    1.0453 H         1 <0>         0.0886
     24 H8          0.6874   -2.7645   -0.5744 H         1 <0>         0.1438
     25 H9         -0.9177   -2.2259   -1.1238 H         1 <0>         0.1508
     26 H10         0.1222   -1.3387   -3.0778 H         1 <0>         0.4412
     27 H11         1.6080   -1.8373   -2.5692 H         1 <0>         0.4297
     28 H12         2.5002   -0.8119   -0.2315 H         1 <0>         0.4300
     29 H13         4.4248    3.3065    0.2304 H         1 <0>         0.0984
     30 H14         3.6164    3.1665    1.8100 H         1 <0>         0.0883
     31 H15         3.7575    1.7413    0.7530 H         1 <0>         0.0821
     32 H16        -1.1577    1.8955   -1.8043 H         1 <0>         0.0928
     33 H17        -1.0765    3.5096   -2.5502 H         1 <0>         0.0924
     34 H18         0.0329    2.2248   -3.0858 H         1 <0>         0.1251
     35 H19         0.4486   -2.9478   -2.9400 H         1 <0>         0.4411
@<TRIPOS>BOND
     1    1    2 1
     2    1   19 1
     3    1   20 1
     4    1   21 1
     5    2    3 1
     6    2   22 1
     7    2   23 1
     8    3    4 1
     9    3    5 1
    10    3    7 1
    11    5    6 1
    12    5   24 1
    13    5   25 1
    14    6   26 1
    15    6   27 1
    16    6   35 1
    17    7    8 1
    18    7   28 1
    19    8    9 2
    20    8   10 2
    21    8   11 1
    22   11   16 1
    23   11   12 2
    24   12   13 1
    25   12   18 1
    26   13   14 1
    27   13   15 1
    28   15   16 2
    29   16   17 1
    30   17   29 1
    31   17   30 1
    32   17   31 1
    33   18   32 1
    34   18   33 1
    35   18   34 1
@<TRIPOS>MOLECULE
ZINC44251935
   31    31     0     0     0
SMALL
USER_CHARGES

@<TRIPOS>ATOM
      1 C1         -0.0167    1.3782    0.0096 C.ar      1 <0>         0.0108
      2 C2          1.1697    2.0864    0.0021 C.ar      1 <0>        -0.1738
      3 C3          2.3802    1.4093   -0.0131 C.ar      1 <0>         0.1920
      4 C4          2.3963    0.0219   -0.0206 C.ar      1 <0>        -0.1599
      5 C5          1.2076   -0.6815   -0.0130 C.ar      1 <0>        -0.0338
      6 C6          0.0021   -0.0041    0.0020 C.ar      1 <0>        -0.0561
      7 N1         -1.2702   -0.7602    0.0105 N.pl3     1 <0>         0.0274
      8 O1         -2.3247   -0.1690    0.0242 O.2       1 <0>        -0.1272
      9 O2         -1.2550   -1.9691    0.0039 O.3       1 <0>        -0.1485
     10 C7          3.7096   -0.7170   -0.0376 C.3       1 <0>         0.1155
     11 H1          4.4188   -0.2125    0.6187 H         1 <0>         0.1700
     12 C8          4.2628   -0.7411   -1.4639 C.3       1 <0>        -0.1725
     13 C9          5.6319   -1.3710   -1.4611 C.2       1 <0>         0.5160
     14 O3          6.1173   -1.7621   -0.4207 O.2       1 <0>        -0.5558
     15 N2          6.3168   -1.4998   -2.6146 N.am      1 <0>        -0.8304
     16 N3          3.5029   -2.0939    0.4309 N.4       1 <0>        -0.6374
     17 O4          3.5484    2.1036   -0.0209 O.3       1 <0>        -0.3146
     18 C10         3.4557    3.5296   -0.0129 C.3       1 <0>         0.4127
     19 F1          2.7562    3.9578   -1.1463 F         1 <0>        -0.1849
     20 F2          2.7784    3.9464    1.1381 F         1 <0>        -0.1842
     21 H2         -0.9594    1.9049    0.0259 H         1 <0>         0.1758
     22 H3          1.1545    3.1663    0.0076 H         1 <0>         0.1708
     23 H4          1.2196   -1.7614   -0.0193 H         1 <0>         0.1586
     24 H5          3.5969   -1.3220   -2.1020 H         1 <0>         0.1273
     25 H6          4.3326    0.2781   -1.8438 H         1 <0>         0.1474
     26 H7          5.9285   -1.1870   -3.4467 H         1 <0>         0.4132
     27 H8          7.1980   -1.9052   -2.6128 H         1 <0>         0.4188
     28 H9          3.1381   -2.0779    1.3715 H         1 <0>         0.4419
     29 H10         2.8465   -2.5608   -0.1766 H         1 <0>         0.4298
     30 H11         4.4575    3.9589   -0.0205 H         1 <0>         0.2017
     31 H12         4.3823   -2.5886    0.4195 H         1 <0>         0.4493
@<TRIPOS>BOND
     1    1    6 ar
     2    1    2 ar
     3    1   21 1
     4    2    3 ar
     5    2   22 1
     6    3    4 ar
     7    3   17 1
     8    4    5 ar
     9    4   10 1
    10    5    6 ar
    11    5   23 1
    12    6    7 1
    13    7    8 2
    14    7    9 1
    15   10   11 1
    16   10   12 1
    17   10   16 1
    18   12   13 1
    19   12   24 1
    20   12   25 1
    21   13   14 2
    22   13   15 am
    23   15   26 1
    24   15   27 1
    25   16   28 1
    26   16   29 1
    27   16   31 1
    28   17   18 1
    29   18   19 1
    30   18   20 1
    31   18   30 1
@<TRIPOS>MOLECULE
ZINC51355198
   35    35     0     0     0
SMALL
USER_CHARGES

@<TRIPOS>ATOM
      1 C1         -0.0187    1.5258    0.0104 C.3       1 <0>        -0.1534
      2 C2          0.0021   -0.0041    0.0020 C.3       1 <0>         0.0606
      3 O1          0.6709   -0.4649   -1.1737 O.3       1 <0>        -0.3484
      4 C3          0.7759   -1.7987   -1.3348 C.2       1 <0>         0.5212
      5 O2          0.3121   -2.5499   -0.4997 O.2       1 <0>        -0.4735
      6 C4          1.4527   -2.3460   -2.5229 C.2       1 <0>        -0.2045
      7 C5          2.0297   -1.6190   -3.5458 C.2       1 <0>         0.1468
      8 N1          2.5340   -2.4966   -4.4273 N.pl3     1 <0>        -0.4382
      9 N2          2.2764   -3.7910   -3.9626 N.2       1 <0>        -0.2048
     10 H1          2.9986   -2.2714   -5.2485 H         1 <0>         0.4553
     11 C6          1.6389   -3.7136   -2.8273 C.2       1 <0>        -0.4177
     12 S1          1.1002   -5.0752   -1.8472 S.o2      1 <0>         2.7173
     13 O3          2.2111   -5.4691   -1.0536 O.2       1 <0>        -0.9305
     14 O4         -0.1466   -4.6986   -1.2790 O.2       1 <0>        -0.8943
     15 N3          0.7890   -6.3303   -2.8817 N.pl3     1 <0>        -1.1147
     16 C7          1.8802   -6.9332   -3.6511 C.3       1 <0>         0.1150
     17 C8          1.4193   -8.2746   -4.2248 C.3       1 <0>        -0.1624
     18 C9          2.5589   -8.9043   -5.0283 C.3       1 <0>        -0.0082
     19 N4          2.1164  -10.1922   -5.5792 N.4       1 <0>        -0.6372
     20 H2          1.0039    1.9031    0.0027 H         1 <0>         0.0676
     21 H3         -0.5459    1.8868   -0.8726 H         1 <0>         0.0675
     22 H4         -0.5289    1.8773    0.9072 H         1 <0>         0.0844
     23 H5          0.5293   -0.3651    0.8851 H         1 <0>         0.0730
     24 H6         -1.0205   -0.3814    0.0098 H         1 <0>         0.0740
     25 H7          2.0678   -0.5424   -3.6224 H         1 <0>         0.2126
     26 H8         -0.1159   -6.6663   -2.9783 H         1 <0>         0.4243
     27 H9          2.1614   -6.2667   -4.4664 H         1 <0>         0.0855
     28 H10         2.7393   -7.0928   -2.9995 H         1 <0>         0.0927
     29 H11         1.1381   -8.9411   -3.4095 H         1 <0>         0.1000
     30 H12         0.5602   -8.1151   -4.8765 H         1 <0>         0.0974
     31 H13         2.8401   -8.2378   -5.8437 H         1 <0>         0.1386
     32 H14         3.4180   -9.0638   -4.3767 H         1 <0>         0.1402
     33 H15         1.8560  -10.8092   -4.8245 H         1 <0>         0.4370
     34 H16         1.3211  -10.0445   -6.1824 H         1 <0>         0.4360
     35 H17         2.8679  -10.6074   -6.1091 H         1 <0>         0.4408
@<TRIPOS>BOND
     1    1    2 1
     2    1   20 1
     3    1   21 1
     4    1   22 1
     5    2    3 1
     6    2   23 1
     7    2   24 1
     8    3    4 1
     9    4    5 2
    10    4    6 1
    11    6   11 1
    12    6    7 2
    13    7   25 1
    14    7    8 1
    15    8   10 1
    16    8    9 1
    17    9   11 2
    18   11   12 1
    19   12   13 2
    20   12   14 2
    21   12   15 1
    22   15   16 1
    23   15   26 1
    24   16   17 1
    25   16   27 1
    26   16   28 1
    27   17   18 1
    28   17   29 1
    29   17   30 1
    30   18   19 1
    31   18   31 1
    32   18   32 1
    33   19   33 1
    34   19   34 1
    35   19   35 1
@<TRIPOS>MOLECULE
ZINC61806957
   39    39     0     0     0
SMALL
USER_CHARGES

@<TRIPOS>ATOM
      1 C1         -0.0200    0.9653   -0.5389 C.3       1 <0>        -0.1632
      2 C2          0.2382   -0.5416   -0.4787 C.3       1 <0>        -0.0868
      3 H1         -0.7077   -1.0761   -0.5660 H         1 <0>         0.1008
      4 C3          1.1612   -0.9472   -1.6296 C.3       1 <0>        -0.1234
      5 C4          2.4890   -0.1969   -1.5070 C.3       1 <0>        -0.1124
      6 C5          3.1520   -0.5479   -0.1736 C.3       1 <0>        -0.0055
      7 H2          3.3359   -1.6214   -0.1307 H         1 <0>         0.1411
      8 C6          2.2289   -0.1423    0.9773 C.3       1 <0>        -0.0023
      9 H3          2.0450    0.9312    0.9344 H         1 <0>         0.1847
     10 C7          0.9012   -0.8926    0.8547 C.3       1 <0>        -0.1336
     11 N1          2.8655   -0.4793    2.2576 N.4       1 <0>        -0.3496
     12 C8          4.0145    0.4080    2.4817 C.3       1 <0>        -0.0732
     13 C9          3.5736    1.8432    2.3525 C.2       1 <0>         0.5139
     14 O1          2.3940    2.1092    2.2595 O.2       1 <0>        -0.5279
     15 N2          4.4902    2.8313    2.3402 N.am      1 <0>        -0.8130
     16 C10         1.8949   -0.3083    3.3470 C.3       1 <0>        -0.0595
     17 C11         2.4073   -0.9923    4.5882 C.2       1 <0>         0.5086
     18 O2          3.4646   -1.5858    4.5609 O.2       1 <0>        -0.5342
     19 N3          1.6905   -0.9445    5.7286 N.am      1 <0>        -0.8224
     20 C12         4.4294    0.1739   -0.0557 C.1       1 <0>         0.1769
     21 N4          5.4153    0.7310    0.0353 N.1       1 <0>        -0.3756
     22 H4          0.9259    1.4998   -0.4516 H         1 <0>         0.0565
     23 H5         -0.4923    1.2153   -1.4889 H         1 <0>         0.0707
     24 H6         -0.6776    1.2542    0.2810 H         1 <0>         0.0648
     25 H7          1.3452   -2.0207   -1.5867 H         1 <0>         0.0800
     26 H8          0.6889   -0.6971   -2.5796 H         1 <0>         0.0914
     27 H9          3.1466   -0.4858   -2.3269 H         1 <0>         0.0979
     28 H10         2.3050    0.8766   -1.5499 H         1 <0>         0.0886
     29 H11         0.2436   -0.6036    1.6746 H         1 <0>         0.0994
     30 H12         1.0851   -1.9661    0.8976 H         1 <0>         0.0955
     31 H13         4.4143    0.2393    3.4816 H         1 <0>         0.1718
     32 H14         4.7864    0.1970    1.7415 H         1 <0>         0.1695
     33 H15         5.4336    2.6186    2.4146 H         1 <0>         0.4168
     34 H16         4.2064    3.7551    2.2571 H         1 <0>         0.4259
     35 H17         1.7578    0.7542    3.5479 H         1 <0>         0.1797
     36 H18         0.9413   -0.7491    3.0565 H         1 <0>         0.1742
     37 H19         0.8449   -0.4698    5.7504 H         1 <0>         0.4150
     38 H20         2.0203   -1.3847    6.5275 H         1 <0>         0.4244
     39 H21         3.1801   -1.4378    2.2348 H         1 <0>         0.4346
@<TRIPOS>BOND
     1    1    2 1
     2    1   22 1
     3    1   23 1
     4    1   24 1
     5    2    3 1
     6    2   10 1
     7    2    4 1
     8    4    5 1
     9    4   25 1
    10    4   26 1
    11    5    6 1
    12    5   27 1
    13    5   28 1
    14    6    7 1
    15    6    8 1
    16    6   20 1
    17    8    9 1
    18    8   10 1
    19    8   11 1
    20   10   29 1
    21   10   30 1
    22   11   12 1
    23   11   16 1
    24   11   39 1
    25   12   13 1
    26   12   31 1
    27   12   32 1
    28   13   14 2
    29   13   15 am
    30   15   33 1
    31   15   34 1
    32   16   17 1
    33   16   35 1
    34   16   36 1
    35   17   18 2
    36   17   19 am
    37   19   37 1
    38   19   38 1
    39   20   21 3
@<TRIPOS>MOLECULE
ZINC08019961
   23    25     0     0     0
SMALL
USER_CHARGES
dichloroBLAHone
@<TRIPOS>ATOM
      1 C1          0.5398   -2.7313   -0.0196 C.ar      1 <0>        -0.1241
      2 C2         -0.7682   -2.2825   -0.0039 C.ar      1 <0>        -0.0444
      3 C3         -1.0410   -0.9294    0.0072 C.ar      1 <0>        -0.0622
      4 C4          0.0021   -0.0041    0.0020 C.ar      1 <0>         0.1912
      5 C5          1.3124   -0.4668   -0.0132 C.ar      1 <0>        -0.1465
      6 C6          1.5813   -1.8186   -0.0240 C.ar      1 <0>         0.0539
      7 Cl1         3.2250   -2.3769   -0.0435 Cl        1 <0>        -0.0394
      8 C7          2.1894    0.7587   -0.0138 C.3       1 <0>         0.2871
      9 C8          1.2217    1.9171    0.0007 C.2       1 <0>         0.5283
     10 O1          1.5064    3.0961    0.0030 O.2       1 <0>        -0.4573
     11 N1         -0.0169    1.3922    0.0097 N.am      1 <0>        -0.6495
     12 O2          3.0031    0.7986   -1.1920 O.3       1 <0>        -0.3352
     13 C9          4.2419    1.4150   -0.7617 C.3       1 <0>         0.0113
     14 C10         4.3915    0.8555    0.6755 C.3       1 <0>         0.0187
     15 O3          3.0276    0.7859    1.1429 O.3       1 <0>        -0.3424
     16 Cl2        -2.6871   -0.3784    0.0270 Cl        1 <0>        -0.0468
     17 H1          0.7484   -3.7909   -0.0281 H         1 <0>         0.1577
     18 H2         -1.5804   -2.9943   -0.0006 H         1 <0>         0.1592
     19 H3         -0.8292    1.9223    0.0166 H         1 <0>         0.4255
     20 H4          4.1535    2.5013   -0.7501 H         1 <0>         0.0910
     21 H5          5.0741    1.1001   -1.3913 H         1 <0>         0.1233
     22 H6          4.9766    1.5356    1.2946 H         1 <0>         0.1133
     23 H7          4.8445   -0.1358    0.6605 H         1 <0>         0.0871
@<TRIPOS>BOND
     1    1    6 ar
     2    1    2 ar
     3    1   17 1
     4    2    3 ar
     5    2   18 1
     6    3    4 ar
     7    3   16 1
     8    4   11 1
     9    4    5 ar
    10    5    6 ar
    11    5    8 1
    12    6    7 1
    13    8   15 1
    14    8    9 1
    15    8   12 1
    16    9   10 2
    17    9   11 am
    18   11   19 1
    19   12   13 1
    20   13   14 1
    21   13   20 1
    22   13   21 1
    23   14   15 1
    24   14   22 1
    25   14   23 1
@<TRIPOS>MOLECULE
ZINC35208121
   34    35     0     0     0
SMALL
USER_CHARGES

@<TRIPOS>ATOM
      1 C1          2.0359   -0.1536   -2.0117 C.3       1 <0>        -0.1460
      2 C2          1.3937   -1.4005   -1.4003 C.3       1 <0>         0.0722
      3 H1          1.5740   -2.2580   -2.0486 H         1 <0>         0.0647
      4 C3         -0.1160   -1.1787   -1.2526 C.3       1 <0>         0.0624
      5 N1         -0.6790   -2.3079   -0.4956 N.am      1 <0>        -0.6085
      6 C4         -0.0352   -2.6788    0.7746 C.3       1 <0>         0.1105
      7 H2         -0.2106   -1.8995    1.5163 H         1 <0>         0.0842
      8 C5          1.4705   -2.8274    0.5281 C.3       1 <0>         0.0511
      9 O1          1.9623   -1.6477   -0.1122 O.3       1 <0>        -0.3743
     10 C6         -0.6097   -4.0054    1.2754 C.3       1 <0>        -0.1396
     11 C7         -1.7530   -2.9824   -0.9519 C.2       1 <0>         0.5653
     12 O2         -2.1392   -3.9768   -0.3686 O.2       1 <0>        -0.5165
     13 C8         -2.4603   -2.5138   -2.1597 C.ar      1 <0>        -0.1339
     14 C9         -2.5370   -1.1470   -2.4405 C.ar      1 <0>        -0.0759
     15 C10        -3.1977   -0.7133   -3.5682 C.ar      1 <0>        -0.1393
     16 C11        -3.7885   -1.6326   -4.4269 C.ar      1 <0>         0.1448
     17 C12        -3.7147   -2.9938   -4.1515 C.ar      1 <0>        -0.0719
     18 C13        -3.0499   -3.4360   -3.0282 C.ar      1 <0>        -0.0390
     19 Cl1        -4.4545   -4.1375   -5.2277 Cl        1 <0>        -0.0437
     20 O3         -4.4395   -1.2008   -5.5369 O.3       1 <0>        -0.4838
     21 H3          3.1095   -0.3113   -2.1148 H         1 <0>         0.0708
     22 H4          1.6006    0.0353   -2.9930 H         1 <0>         0.0752
     23 H5          1.8552    0.7034   -1.3630 H         1 <0>         0.0683
     24 H6         -0.2995   -0.2484   -0.7151 H         1 <0>         0.0839
     25 H7         -0.5782   -1.1308   -2.2386 H         1 <0>         0.1071
     26 H8          1.9833   -2.9658    1.4799 H         1 <0>         0.1098
     27 H9          1.6510   -3.6907   -0.1124 H         1 <0>         0.0580
     28 H10        -0.5238   -4.7576    0.4912 H         1 <0>         0.0720
     29 H11        -0.0551   -4.3325    2.1549 H         1 <0>         0.0525
     30 H12        -1.6593   -3.8713    1.5369 H         1 <0>         0.0778
     31 H13        -2.0789   -0.4316   -1.7736 H         1 <0>         0.1459
     32 H14        -3.2572    0.3430   -3.7855 H         1 <0>         0.1482
     33 H15        -2.9886   -4.4934   -2.8171 H         1 <0>         0.1486
     34 H16        -3.8765   -1.1279   -6.3197 H         1 <0>         0.3993
@<TRIPOS>BOND
     1    1    2 1
     2    1   21 1
     3    1   22 1
     4    1   23 1
     5    2    3 1
     6    2    9 1
     7    2    4 1
     8    4    5 1
     9    4   24 1
    10    4   25 1
    11    5    6 1
    12    5   11 am
    13    6    7 1
    14    6    8 1
    15    6   10 1
    16    8    9 1
    17    8   26 1
    18    8   27 1
    19   10   28 1
    20   10   29 1
    21   10   30 1
    22   11   12 2
    23   11   13 1
    24   13   18 ar
    25   13   14 ar
    26   14   15 ar
    27   14   31 1
    28   15   16 ar
    29   15   32 1
    30   16   17 ar
    31   16   20 1
    32   17   18 ar
    33   17   19 1
    34   18   33 1
    35   20   34 1
@<TRIPOS>MOLECULE
ZINC40414697
   33    34     0     0     0
SMALL
USER_CHARGES

@<TRIPOS>ATOM
      1 C1         -0.0187    1.5258    0.0104 C.3       1 <0>        -0.1488
      2 C2          0.0021   -0.0041    0.0020 C.3       1 <0>        -0.1404
      3 C3          0.7182   -0.4975   -1.2568 C.3       1 <0>         0.1160
      4 N1          0.7381   -1.9623   -1.2648 N.am      1 <0>        -0.5773
      5 C4          1.7173   -2.7104   -0.7156 C.2       1 <0>         0.5302
      6 O1          2.7102   -2.3143   -0.1437 O.2       1 <0>        -0.4600
      7 C5          1.3156   -4.1463   -0.9635 C.3       1 <0>         0.1251
      8 C6          1.1182   -4.8790    0.3590 C.3       1 <0>        -0.1141
      9 C7          0.6827   -6.3210    0.0861 C.3       1 <0>        -0.1173
     10 C8          1.7515   -7.0253   -0.7521 C.3       1 <0>        -0.1255
     11 C9          1.9213   -6.2928   -2.0846 C.3       1 <0>        -0.1174
     12 C10         2.3618   -4.8507   -1.8202 C.3       1 <0>        -0.1141
     13 N2          0.0430   -4.0405   -1.6884 N.am      1 <0>        -0.7164
     14 C11        -0.2160   -2.7247   -1.8131 C.2       1 <0>         0.7014
     15 O2         -1.2033   -2.2794   -2.3645 O.2       1 <0>        -0.5397
     16 H1          1.0039    1.9031    0.0027 H         1 <0>         0.0589
     17 H2         -0.5459    1.8868   -0.8726 H         1 <0>         0.0598
     18 H3         -0.5289    1.8773    0.9072 H         1 <0>         0.0622
     19 H4          0.5293   -0.3651    0.8851 H         1 <0>         0.0669
     20 H5         -1.0205   -0.3814    0.0098 H         1 <0>         0.0700
     21 H6          0.1910   -0.1364   -2.1398 H         1 <0>         0.0980
     22 H7          1.7408   -0.1202   -1.2645 H         1 <0>         0.0954
     23 H8          2.0553   -4.8820    0.9158 H         1 <0>         0.0905
     24 H9          0.3504   -4.3723    0.9437 H         1 <0>         0.0742
     25 H10         0.5568   -6.8479    1.0319 H         1 <0>         0.0752
     26 H11        -0.2622   -6.3186   -0.4573 H         1 <0>         0.0646
     27 H12         2.6982   -7.0205   -0.2118 H         1 <0>         0.0690
     28 H13         1.4459   -8.0546   -0.9398 H         1 <0>         0.0696
     29 H14         2.6773   -6.7996   -2.6843 H         1 <0>         0.0753
     30 H15         0.9727   -6.2904   -2.6216 H         1 <0>         0.0647
     31 H16         2.4689   -4.3241   -2.7685 H         1 <0>         0.0745
     32 H17         3.3178   -4.8533   -1.2967 H         1 <0>         0.0905
     33 H18        -0.5048   -4.7734   -2.0104 H         1 <0>         0.4392
@<TRIPOS>BOND
     1    1    2 1
     2    1   16 1
     3    1   17 1
     4    1   18 1
     5    2    3 1
     6    2   19 1
     7    2   20 1
     8    3    4 1
     9    3   21 1
    10    3   22 1
    11    4   14 am
    12    4    5 am
    13    5    6 2
    14    5    7 1
    15    7   12 1
    16    7    8 1
    17    7   13 1
    18    8    9 1
    19    8   23 1
    20    8   24 1
    21    9   10 1
    22    9   25 1
    23    9   26 1
    24   10   11 1
    25   10   27 1
    26   10   28 1
    27   11   12 1
    28   11   29 1
    29   11   30 1
    30   12   31 1
    31   12   32 1
    32   13   14 am
    33   13   33 1
    34   14   15 2
@<TRIPOS>MOLECULE
ZINC49716970
   30    32     0     0     0
SMALL
USER_CHARGES

@<TRIPOS>ATOM
      1 C1         -0.0169    1.3965    0.0097 C.ar      1 <0>        -0.1302
      2 C2          1.1790    2.0852    0.0020 C.ar      1 <0>         0.1090
      3 N1          2.3317    1.4450   -0.0129 N.ar      1 <0>        -0.5067
      4 C3          2.3993    0.1235   -0.0211 C.ar      1 <0>         0.4484
      5 C4          1.2414   -0.6474   -0.0137 C.ar      1 <0>        -0.1657
      6 C5          0.0021   -0.0041    0.0020 C.ar      1 <0>         0.0169
      7 C6         -1.2569   -0.7809    0.0103 C.2       1 <0>         0.5110
      8 O1         -2.3329   -0.2009    0.0241 O.co2     1 <0>        -0.6454
      9 O2         -1.2213   -2.0027    0.0034 O.co2     1 <0>        -0.6477
     10 N2          3.6411   -0.5014   -0.0377 N.pl3     1 <0>        -0.6121
     11 C7          3.8964   -1.9569   -0.0551 C.3       1 <0>         0.1109
     12 C8          5.4501   -2.1013   -0.0456 C.3       1 <0>        -0.1046
     13 H1          5.8465   -3.0588    0.2923 H         1 <0>         0.1299
     14 C9          5.8796   -1.6379   -1.4728 C.3       1 <0>        -0.1260
     15 C10         5.5466   -0.1277   -1.4957 C.3       1 <0>        -0.1361
     16 C11         4.9742    0.1672   -0.0479 C.3       1 <0>         0.1034
     17 H2          4.9826    1.2101    0.2689 H         1 <0>         0.1169
     18 C12         5.8211   -0.8393    0.8141 C.3       1 <0>        -0.1308
     19 H3         -0.9555    1.9306    0.0260 H         1 <0>         0.1816
     20 H4          1.1706    3.1652    0.0079 H         1 <0>         0.1994
     21 H5          1.3000   -1.7258   -0.0205 H         1 <0>         0.1767
     22 H6          3.4678   -2.4264    0.8304 H         1 <0>         0.0870
     23 H7          3.4808   -2.4027   -0.9588 H         1 <0>         0.0887
     24 H8          6.9481   -1.7955   -1.6198 H         1 <0>         0.0783
     25 H9          5.3065   -2.1667   -2.2344 H         1 <0>         0.0762
     26 H10         6.4488    0.4582   -1.6716 H         1 <0>         0.0850
     27 H11         4.7984    0.0854   -2.2591 H         1 <0>         0.0732
     28 H12         5.4568   -0.9172    1.8384 H         1 <0>         0.0860
     29 H13         6.8872   -0.6152    0.7777 H         1 <0>         0.0983
     30 H14         3.1548    1.9581   -0.0183 H         1 <0>         0.4287
@<TRIPOS>BOND
     1    1    6 ar
     2    1    2 ar
     3    1   19 1
     4    2    3 ar
     5    2   20 1
     6    3    4 ar
     7    3   30 1
     8    4    5 ar
     9    4   10 1
    10    5    6 ar
    11    5   21 1
    12    6    7 1
    13    7    8 2
    14    7    9 1
    15   10   16 1
    16   10   11 1
    17   11   12 1
    18   11   22 1
    19   11   23 1
    20   12   13 1
    21   12   18 1
    22   12   14 1
    23   14   15 1
    24   14   24 1
    25   14   25 1
    26   15   16 1
    27   15   26 1
    28   15   27 1
    29   16   17 1
    30   16   18 1
    31   18   28 1
    32   18   29 1
@<TRIPOS>MOLECULE
ZINC06556470
   31    33     0     0     0
SMALL
USER_CHARGES

@<TRIPOS>ATOM
      1 C1         -0.0184    1.5028    0.0103 C.3       1 <0>        -0.0798
      2 C2          0.0021   -0.0041    0.0020 C.2       1 <0>        -0.2764
      3 C3         -1.1592   -0.6976    0.0037 C.2       1 <0>         0.2113
      4 N1         -1.1385   -2.0599   -0.0043 N.pl3     1 <0>        -0.6025
      5 C4          0.0679   -2.7357   -0.0141 C.2       1 <0>         0.3103
      6 C5          0.3727   -4.0618   -0.0240 C.2       1 <0>        -0.2729
      7 C6          1.7733   -4.1811   -0.0321 C.2       1 <0>         0.1619
      8 N2          2.2924   -2.9703   -0.0272 N.2       1 <0>        -0.2512
      9 N3          1.2444   -2.0412   -0.0159 N.am      1 <0>        -0.3593
     10 C7          1.2311   -0.6935   -0.0134 C.2       1 <0>         0.5702
     11 O1          2.2793   -0.0727   -0.0201 O.2       1 <0>        -0.4848
     12 C8          2.5367   -5.4536   -0.0436 C.ar      1 <0>        -0.0374
     13 C9          1.8623   -6.6730   -0.0531 C.ar      1 <0>        -0.0581
     14 C10         2.5760   -7.8537   -0.0643 C.ar      1 <0>        -0.1555
     15 C11         3.9613   -7.8282   -0.0656 C.ar      1 <0>         0.1144
     16 C12         4.6358   -6.6181   -0.0557 C.ar      1 <0>        -0.1547
     17 C13         3.9299   -5.4325   -0.0508 C.ar      1 <0>        -0.0543
     18 F1          4.6563   -8.9867   -0.0761 F         1 <0>        -0.1352
     19 C14        -2.4754    0.0362    0.0150 C.3       1 <0>        -0.1269
     20 H1          1.0042    1.8801    0.0026 H         1 <0>         0.0803
     21 H2         -0.5455    1.8639   -0.8728 H         1 <0>         0.0708
     22 H3         -0.5286    1.8543    0.9071 H         1 <0>         0.0714
     23 H4         -0.3353   -4.8773   -0.0252 H         1 <0>         0.1662
     24 H5          0.7825   -6.6937   -0.0514 H         1 <0>         0.1405
     25 H6          2.0541   -8.7992   -0.0717 H         1 <0>         0.1429
     26 H7          5.7157   -6.6027   -0.0564 H         1 <0>         0.1424
     27 H8          4.4565   -4.4896   -0.0479 H         1 <0>         0.1430
     28 H9         -2.7980    0.2194   -1.0100 H         1 <0>         0.1002
     29 H10        -3.2235   -0.5673    0.5289 H         1 <0>         0.0846
     30 H11        -2.3567    0.9873    0.5340 H         1 <0>         0.1038
     31 H12        -1.9717   -2.5566   -0.0027 H         1 <0>         0.4346
@<TRIPOS>BOND
     1    1    2 1
     2    1   20 1
     3    1   21 1
     4    1   22 1
     5    2   10 1
     6    2    3 2
     7    3    4 1
     8    3   19 1
     9    4    5 1
    10    4   31 1
    11    5    9 1
    12    5    6 2
    13    6    7 1
    14    6   23 1
    15    7    8 2
    16    7   12 1
    17    8    9 1
    18    9   10 am
    19   10   11 2
    20   12   17 ar
    21   12   13 ar
    22   13   14 ar
    23   13   24 1
    24   14   15 ar
    25   14   25 1
    26   15   16 ar
    27   15   18 1
    28   16   17 ar
    29   16   26 1
    30   17   27 1
    31   19   28 1
    32   19   29 1
    33   19   30 1
@<TRIPOS>MOLECULE
ZINC09590630
   51    54     0     0     0
SMALL
USER_CHARGES
3-[[4-[3-chloro-5-(trifluoromethyl)-2-pyridyl]piperazin-1-yl]methyl]-7,8-dimethyl-9-thia-2,4-diazabicyclo[4.3.0]nona-2,7,10-trien-5-one
@<TRIPOS>ATOM
      1 C1         -2.3580    8.4842   -1.0860 C.3       1 <0>        -0.1131
      2 C2         -1.6116    7.5217   -0.1986 C.2       1 <0>        -0.0757
      3 C3         -1.0482    7.9477    0.9433 C.2       1 <0>        -0.1211
      4 S1         -0.3054    6.4717    1.6129 S.3       1 <0>         0.1731
      5 C4         -0.7732    5.3270    0.3404 C.2       1 <0>         0.0492
      6 C5         -1.4929    6.1237   -0.5683 C.2       1 <0>        -0.1879
      7 C6         -2.0022    5.4417   -1.7212 C.2       1 <0>         0.5542
      8 O1         -2.6391    6.0459   -2.5668 O.2       1 <0>        -0.4768
      9 N1         -1.7605    4.1247   -1.8588 N.am      1 <0>        -0.6208
     10 H1         -2.0991    3.6585   -2.6391 H         1 <0>         0.4289
     11 C7         -1.0578    3.4342   -0.9243 C.2       1 <0>         0.3446
     12 N2         -0.5809    4.0270    0.1373 N.2       1 <0>        -0.4976
     13 C8         -0.8186    1.9591   -1.1187 C.3       1 <0>         0.0649
     14 C9          1.3173    2.0088    0.0217 C.3       1 <0>        -0.0046
     15 C10         2.0713    1.5026    1.2536 C.3       1 <0>         0.0242
     16 N3          2.1232    0.0343    1.2239 N.pl3     1 <0>        -0.4964
     17 C11         0.7695   -0.5376    1.2120 C.3       1 <0>         0.0068
     18 C12         0.0156   -0.0314   -0.0200 C.3       1 <0>         0.0051
     19 C13         2.8637   -0.4600    2.2922 C.ar      1 <0>         0.3594
     20 C14         4.2225   -0.7170    2.1298 C.ar      1 <0>        -0.0392
     21 C15         4.9478   -1.2034    3.2033 C.ar      1 <0>         0.0863
     22 C16         4.2856   -1.4275    4.4034 C.ar      1 <0>        -0.1808
     23 C17         2.9355   -1.1557    4.4917 C.ar      1 <0>         0.2167
     24 C18         5.0340   -1.9618    5.5973 C.3       1 <0>         0.5257
     25 F1          4.1539   -2.0997    6.6760 F         1 <0>        -0.1561
     26 F2          5.5849   -3.2087    5.2826 F         1 <0>        -0.1461
     27 F3          6.0581   -1.0731    5.9417 F         1 <0>        -0.1466
     28 Cl1         4.9972   -0.4252    0.6040 Cl        1 <0>         0.0754
     29 C19        -1.0442    9.3398    1.5203 C.3       1 <0>        -0.0807
     30 H2         -1.6683    8.9234   -1.8067 H         1 <0>         0.0807
     31 H3         -3.1475    7.9519   -1.6164 H         1 <0>         0.0851
     32 H4         -2.7980    9.2736   -0.4766 H         1 <0>         0.0775
     33 H5         -0.2691    1.7992   -2.0464 H         1 <0>         0.1737
     34 H6         -1.7754    1.4394   -1.1689 H         1 <0>         0.1722
     35 H7          1.8485    1.7046   -0.8802 H         1 <0>         0.1532
     36 H8          1.2524    3.0963    0.0565 H         1 <0>         0.1683
     37 H9          1.5549    1.8300    2.1560 H         1 <0>         0.0900
     38 H10         3.0852    1.9025    1.2492 H         1 <0>         0.1463
     39 H11         0.2383   -0.2334    2.1139 H         1 <0>         0.0763
     40 H12         0.8345   -1.6251    1.1772 H         1 <0>         0.1505
     41 H13        -0.9984   -0.4313   -0.0155 H         1 <0>         0.1595
     42 H14         0.5316   -0.3588   -0.9225 H         1 <0>         0.1603
     43 H15         6.0040   -1.4081    3.1087 H         1 <0>         0.2087
     44 H16         2.4171   -1.3283    5.4233 H         1 <0>         0.2267
     45 H17        -0.4958    9.3411    2.4623 H         1 <0>         0.0825
     46 H18        -0.5637   10.0223    0.8193 H         1 <0>         0.0957
     47 H19        -2.0701    9.6630    1.6967 H         1 <0>         0.0959
     48 N4         -0.0487    1.4442    0.0338 N.4       1 <0>        -0.3913
     49 H20        -0.5189    1.7264    0.9019 H         1 <0>         0.4382
     50 N5          2.1921   -0.6722    3.4603 N.ar      1 <0>        -0.5011
     51 H21         1.1881   -0.4791    3.5552 H         1 <0>         0.4798
@<TRIPOS>BOND
     1    1    2 1
     2    1   30 1
     3    1   31 1
     4    1   32 1
     5    2    6 1
     6    2    3 2
     7    3    4 1
     8    3   29 1
     9    4    5 1
    10    5   12 1
    11    5    6 2
    12    6    7 1
    13    7    8 2
    14    7    9 am
    15    9   10 1
    16    9   11 1
    17   11   12 2
    18   11   13 1
    19   13   33 1
    20   13   34 1
    21   13   48 1
    22   14   15 1
    23   14   35 1
    24   14   36 1
    25   14   48 1
    26   15   16 1
    27   15   37 1
    28   15   38 1
    29   16   17 1
    30   16   19 1
    31   17   18 1
    32   17   39 1
    33   17   40 1
    34   18   41 1
    35   18   42 1
    36   18   48 1
    37   19   20 ar
    38   19   50 ar
    39   20   21 ar
    40   20   28 1
    41   21   22 ar
    42   21   43 1
    43   22   23 ar
    44   22   24 1
    45   23   44 1
    46   23   50 ar
    47   24   25 1
    48   24   26 1
    49   24   27 1
    50   29   45 1
    51   29   46 1
    52   29   47 1
    53   48   49 1
    54   50   51 1
@<TRIPOS>MOLECULE
ZINC38766413
   67    71     0     0     0
SMALL
USER_CHARGES

@<TRIPOS>ATOM
      1 C1          0.2494    1.3827   -0.0178 C.3       1 <0>        -0.1802
      2 C2          0.3254   -0.1186   -0.3030 C.3       1 <0>         0.0748
      3 H1          0.8321   -0.2970   -1.2514 H         1 <0>         0.1308
      4 C3         -1.0620   -0.7171   -0.3300 C.2       1 <0>         0.0294
      5 C4         -1.2894   -1.3422    0.7981 C.2       1 <0>        -0.2637
      6 C5         -0.0769   -1.2243    1.6923 C.3       1 <0>         0.3294
      7 H2         -0.2443   -0.4661    2.4573 H         1 <0>         0.1124
      8 N1          1.0342   -0.8149    0.7969 N.3       1 <0>        -0.4786
      9 C6          1.9599    0.0945    1.4855 C.3       1 <0>         0.0329
     10 C7          2.9481   -0.7209    2.3220 C.3       1 <0>         0.0841
     11 H3          2.4079   -1.3040    3.0678 H         1 <0>         0.0842
     12 C8          3.9482    0.2252    3.0206 C.3       1 <0>        -0.1528
     13 C9          5.2816   -0.5630    2.9074 C.3       1 <0>        -0.1567
     14 C10         5.0957   -1.2601    1.5361 C.3       1 <0>         0.0463
     15 O1          3.6986   -1.5956    1.4715 O.3       1 <0>        -0.3645
     16 N2          0.2215   -2.5160    2.3157 N.am      1 <0>        -0.7260
     17 C11         0.5430   -2.5749    3.6233 C.2       1 <0>         0.5252
     18 O2          0.5853   -1.5586    4.2837 O.2       1 <0>        -0.5161
     19 C12         0.8500   -3.9036    4.2646 C.3       1 <0>        -0.1083
     20 C13        -0.3670   -4.8227    4.1414 C.3       1 <0>        -0.1044
     21 C14        -0.0554   -6.1717    4.7925 C.3       1 <0>        -0.1212
     22 C15         0.2762   -5.9599    6.2710 C.3       1 <0>        -0.1249
     23 C16         1.4933   -5.0409    6.3942 C.3       1 <0>        -0.1246
     24 C17         1.1816   -3.6919    5.7431 C.3       1 <0>        -0.0998
     25 C18        -2.5630   -2.0670    1.1500 C.3       1 <0>         0.3232
     26 N3         -2.9610   -2.9508    0.0471 N.pl3     1 <0>        -0.4643
     27 C19        -4.1313   -2.5577   -0.3655 C.ar      1 <0>         0.3187
     28 C20        -5.0310   -3.0382   -1.4232 C.ar      1 <0>        -0.1411
     29 C21        -6.2102   -2.4172   -1.6263 C.ar      1 <0>         0.0370
     30 C22        -6.6270   -1.3129   -0.8620 C.ar      1 <0>         0.0329
     31 C23        -5.8787   -0.7925    0.1312 C.ar      1 <0>        -0.1389
     32 C24        -4.5727   -1.3890    0.4439 C.ar      1 <0>         0.3158
     33 N4         -3.6582   -1.1050    1.3256 N.pl3     1 <0>        -0.4613
     34 C25        -2.0333   -0.6111   -1.4773 C.3       1 <0>        -0.1461
     35 H4          1.2546    1.8042   -0.0197 H         1 <0>         0.0932
     36 H5         -0.3499    1.8689   -0.7876 H         1 <0>         0.0780
     37 H6         -0.2106    1.5446    0.9570 H         1 <0>         0.0628
     38 H7          2.5066    0.6829    0.7486 H         1 <0>         0.0965
     39 H8          1.3961    0.7617    2.1374 H         1 <0>         0.0638
     40 H9          4.0144    1.1772    2.4939 H         1 <0>         0.0785
     41 H10         3.6745    0.3765    4.0647 H         1 <0>         0.0857
     42 H11         6.1370    0.1123    2.8920 H         1 <0>         0.0895
     43 H12         5.3751   -1.2943    3.7103 H         1 <0>         0.0807
     44 H13         5.3598   -0.5794    0.7268 H         1 <0>         0.0620
     45 H14         5.7036   -2.1634    1.4853 H         1 <0>         0.0893
     46 H15         0.1877   -3.3288    1.7875 H         1 <0>         0.4041
     47 H16         1.7028   -4.3609    3.7628 H         1 <0>         0.1084
     48 H17        -1.2198   -4.3654    4.6432 H         1 <0>         0.0641
     49 H18        -0.6033   -4.9735    3.0881 H         1 <0>         0.0542
     50 H19        -0.9224   -6.8264    4.7048 H         1 <0>         0.0682
     51 H20         0.7974   -6.6289    4.2907 H         1 <0>         0.0703
     52 H21        -0.5766   -5.5027    6.7728 H         1 <0>         0.0630
     53 H22         0.4982   -6.9210    6.7349 H         1 <0>         0.0713
     54 H23         1.7295   -4.8900    7.4475 H         1 <0>         0.0738
     55 H24         2.3461   -5.4981    5.8924 H         1 <0>         0.0672
     56 H25         2.0486   -3.0371    5.8308 H         1 <0>         0.0727
     57 H26         0.3288   -3.2346    6.2449 H         1 <0>         0.0698
     58 H27        -2.4235   -2.6460    2.0629 H         1 <0>         0.2381
     59 H28        -4.7493   -3.8832   -2.0341 H         1 <0>         0.2077
     60 H29        -6.8605   -2.7822   -2.4075 H         1 <0>         0.2053
     61 H30        -7.5847   -0.8636   -1.0795 H         1 <0>         0.2050
     62 H31        -6.2366    0.0574    0.6934 H         1 <0>         0.2067
     63 H32        -1.9516   -1.4980   -2.1057 H         1 <0>         0.1097
     64 H33        -3.0484   -0.5338   -1.0880 H         1 <0>         0.0439
     65 H34        -1.8023    0.2753   -2.0681 H         1 <0>         0.1215
     66 H35        -2.4461   -3.6918   -0.3089 H         1 <0>         0.4959
     67 H36        -3.6939   -0.3891    1.9792 H         1 <0>         0.4954
@<TRIPOS>BOND
     1    1    2 1
     2    1   35 1
     3    1   36 1
     4    1   37 1
     5    2    3 1
     6    2    8 1
     7    2    4 1
     8    4    5 2
     9    4   34 1
    10    5    6 1
    11    5   25 1
    12    6    7 1
    13    6    8 1
    14    6   16 1
    15    8    9 1
    16    9   10 1
    17    9   38 1
    18    9   39 1
    19   10   11 1
    20   10   15 1
    21   10   12 1
    22   12   13 1
    23   12   40 1
    24   12   41 1
    25   13   14 1
    26   13   42 1
    27   13   43 1
    28   14   15 1
    29   14   44 1
    30   14   45 1
    31   16   17 am
    32   16   46 1
    33   17   18 2
    34   17   19 1
    35   19   24 1
    36   19   20 1
    37   19   47 1
    38   20   21 1
    39   20   48 1
    40   20   49 1
    41   21   22 1
    42   21   50 1
    43   21   51 1
    44   22   23 1
    45   22   52 1
    46   22   53 1
    47   23   24 1
    48   23   54 1
    49   23   55 1
    50   24   56 1
    51   24   57 1
    52   25   33 1
    53   25   26 1
    54   25   58 1
    55   26   27 2
    56   26   66 1
    57   27   32 ar
    58   27   28 ar
    59   28   29 ar
    60   28   59 1
    61   29   30 ar
    62   29   60 1
    63   30   31 ar
    64   30   61 1
    65   31   32 ar
    66   31   62 1
    67   32   33 2
    68   33   67 1
    69   34   63 1
    70   34   64 1
    71   34   65 1
@<TRIPOS>MOLECULE
ZINC39980618
   69    72     0     0     0
SMALL
USER_CHARGES

@<TRIPOS>ATOM
      1 C1         -0.0184    1.5028    0.0103 C.3       1 <0>        -0.1318
      2 C2          0.0021   -0.0041    0.0020 C.ar      1 <0>        -0.1142
      3 C3          0.0055   -0.6803   -1.2183 C.ar      1 <0>         0.0936
      4 C4          0.0240   -2.0360   -1.3049 C.ar      1 <0>        -0.1852
      5 C5          0.0407   -2.8259   -0.1407 C.ar      1 <0>         0.3587
      6 N1          0.0593   -4.1552   -0.2378 N.am      1 <0>        -0.5889
      7 C6          0.0752   -4.9559    0.8146 C.2       1 <0>         0.5139
      8 O1          0.0918   -6.1629    0.6633 O.2       1 <0>        -0.4033
      9 C7          0.0732   -4.3654    2.2066 C.3       1 <0>        -0.1564
     10 H1          0.9605   -4.7286    2.7252 H         1 <0>         0.1693
     11 C8          0.0527   -2.8538    2.3225 C.2       1 <0>         0.1164
     12 C9          0.0375   -2.1383    1.1622 C.ar      1 <0>        -0.1607
     13 C10         0.0224   -0.6751    1.1825 C.ar      1 <0>        -0.0090
     14 C11        -1.1516   -4.9087    2.9452 C.3       1 <0>         0.1448
     15 N2         -1.0145   -6.3569    3.1190 N.am      1 <0>        -0.6276
     16 C12        -0.3605   -6.8924    4.3155 C.3       1 <0>         0.0847
     17 C13        -1.4053   -7.1180    5.4101 C.3       1 <0>        -0.0329
     18 N3         -0.7495   -7.6550    6.6099 N.4       1 <0>        -0.3931
     19 C14         0.1219   -6.6205    7.2237 C.3       1 <0>        -0.0102
     20 C15         0.2663   -7.1025    8.6891 C.3       1 <0>        -0.1457
     21 C16        -1.1369   -7.6682    9.0067 C.3       1 <0>        -0.1461
     22 C17        -1.7600   -7.9915    7.6361 C.3       1 <0>        -0.0078
     23 C18        -1.4901   -7.1966    2.1780 C.2       1 <0>         0.7195
     24 O2         -2.0329   -6.7521    1.1850 O.2       1 <0>        -0.5574
     25 N4         -1.3639   -8.5288    2.3379 N.am      1 <0>        -0.7316
     26 C19        -1.8808   -9.4415    1.3151 C.3       1 <0>         0.1614
     27 C20        -3.3677   -9.6999    1.5667 C.3       1 <0>        -0.1253
     28 C21        -3.9076  -10.6531    0.4985 C.3       1 <0>        -0.1201
     29 C22        -3.1421  -11.9763    0.5619 C.3       1 <0>        -0.1250
     30 C23        -1.6552  -11.7179    0.3103 C.3       1 <0>        -0.1187
     31 C24        -1.1153  -10.7647    1.3785 C.3       1 <0>        -0.1241
     32 C25         0.0261   -2.6988   -2.6583 C.3       1 <0>        -0.1327
     33 H2          1.0042    1.8801    0.0026 H         1 <0>         0.0927
     34 H3         -0.5455    1.8639   -0.8728 H         1 <0>         0.0867
     35 H4         -0.5286    1.8543    0.9071 H         1 <0>         0.0860
     36 H5         -0.0074   -0.1028   -2.1308 H         1 <0>         0.1694
     37 H6          0.0501   -2.3639    3.2850 H         1 <0>         0.2003
     38 H7          0.0236   -0.1385    2.1198 H         1 <0>         0.1752
     39 H8         -1.2283   -4.4312    3.9221 H         1 <0>         0.1158
     40 H9         -2.0497   -4.6958    2.3653 H         1 <0>         0.1133
     41 H10         0.1219   -7.8393    4.0729 H         1 <0>         0.1023
     42 H11         0.3883   -6.1833    4.6685 H         1 <0>         0.1073
     43 H12        -1.8876   -6.1711    5.6527 H         1 <0>         0.1371
     44 H13        -2.1540   -7.8272    5.0571 H         1 <0>         0.1340
     45 H14         1.0934   -6.5936    6.7301 H         1 <0>         0.1355
     46 H15        -0.3572   -5.6422    7.1859 H         1 <0>         0.1343
     47 H16         1.0232   -7.8831    8.7656 H         1 <0>         0.1009
     48 H17         0.5038   -6.2675    9.3481 H         1 <0>         0.1194
     49 H18        -1.0527   -8.5740    9.6072 H         1 <0>         0.1089
     50 H19        -1.7364   -6.9221    9.5283 H         1 <0>         0.1061
     51 H20        -2.6570   -7.3910    7.4850 H         1 <0>         0.1317
     52 H21        -2.0063   -9.0519    7.5810 H         1 <0>         0.1354
     53 H22        -0.9308   -8.8834    3.1301 H         1 <0>         0.3871
     54 H23        -1.7515   -8.9938    0.3298 H         1 <0>         0.0933
     55 H24        -3.4970  -10.1477    2.5520 H         1 <0>         0.0606
     56 H25        -3.9131   -8.7573    1.5216 H         1 <0>         0.0650
     57 H26        -4.9668  -10.8372    0.6778 H         1 <0>         0.0704
     58 H27        -3.7782  -10.2054   -0.4868 H         1 <0>         0.0665
     59 H28        -3.2714  -12.4241    1.5472 H         1 <0>         0.0637
     60 H29        -3.5267  -12.6554   -0.1991 H         1 <0>         0.0715
     61 H30        -1.1098  -12.6606    0.3555 H         1 <0>         0.0738
     62 H31        -1.5259  -11.2701   -0.6750 H         1 <0>         0.0678
     63 H32        -0.0560  -10.5806    1.1992 H         1 <0>         0.0684
     64 H33        -1.2446  -11.2125    2.3638 H         1 <0>         0.0658
     65 H34         1.0541   -2.8443   -2.9900 H         1 <0>         0.0962
     66 H35        -0.4740   -3.6650   -2.5905 H         1 <0>         0.0729
     67 H36        -0.5004   -2.0666   -3.3733 H         1 <0>         0.1030
     68 H37         0.0609   -4.5540   -1.1220 H         1 <0>         0.4389
     69 H38        -0.2074   -8.4727    6.3741 H         1 <0>         0.4286
@<TRIPOS>BOND
     1    1    2 1
     2    1   33 1
     3    1   34 1
     4    1   35 1
     5    2   13 ar
     6    2    3 ar
     7    3    4 ar
     8    3   36 1
     9    4    5 ar
    10    4   32 1
    11    5   12 ar
    12    5    6 2
    13    6    7 am
    14    6   68 1
    15    7    8 2
    16    7    9 1
    17    9   10 1
    18    9   11 1
    19    9   14 1
    20   11   12 2
    21   11   37 1
    22   12   13 ar
    23   13   38 1
    24   14   15 1
    25   14   39 1
    26   14   40 1
    27   15   16 1
    28   15   23 am
    29   16   17 1
    30   16   41 1
    31   16   42 1
    32   17   18 1
    33   17   43 1
    34   17   44 1
    35   18   22 1
    36   18   19 1
    37   18   69 1
    38   19   20 1
    39   19   45 1
    40   19   46 1
    41   20   21 1
    42   20   47 1
    43   20   48 1
    44   21   22 1
    45   21   49 1
    46   21   50 1
    47   22   51 1
    48   22   52 1
    49   23   24 2
    50   23   25 am
    51   25   26 1
    52   25   53 1
    53   26   31 1
    54   26   27 1
    55   26   54 1
    56   27   28 1
    57   27   55 1
    58   27   56 1
    59   28   29 1
    60   28   57 1
    61   28   58 1
    62   29   30 1
    63   29   59 1
    64   29   60 1
    65   30   31 1
    66   30   61 1
    67   30   62 1
    68   31   63 1
    69   31   64 1
    70   32   65 1
    71   32   66 1
    72   32   67 1
@<TRIPOS>MOLECULE
ZINC39949010
   49    52     0     0     0
SMALL
USER_CHARGES

@<TRIPOS>ATOM
      1 C1          1.0422    1.0131    1.2050 C.3       1 <0>        -0.1588
      2 C2          0.8214   -0.4666    0.8846 C.3       1 <0>         0.0629
      3 O1          1.3218   -0.7506   -0.4234 O.3       1 <0>        -0.3332
      4 C3          1.2041   -2.0145   -0.8598 C.2       1 <0>         0.4914
      5 O2          0.6931   -2.8520   -0.1545 O.2       1 <0>        -0.5067
      6 C4          1.7093   -2.3889   -2.2293 C.3       1 <0>        -0.0517
      7 H1          2.7764   -2.1738   -2.2857 H         1 <0>         0.1619
      8 C5          1.4867   -3.9040   -2.4532 C.3       1 <0>         0.0789
      9 H2          2.3895   -4.4767   -2.2411 H         1 <0>         0.1488
     10 S1          1.1167   -3.8687   -4.2573 S.3       1 <0>        -0.0753
     11 C6          0.6158   -2.1679   -4.3849 C.2       1 <0>        -0.0914
     12 C7          0.9854   -1.5643   -3.2636 C.2       1 <0>        -0.1036
     13 C8          0.6871   -0.0840   -3.0343 C.3       1 <0>        -0.0647
     14 C9          0.3969    0.5831   -4.3780 C.3       1 <0>        -0.1283
     15 C10        -0.6887   -0.2059   -5.1168 C.3       1 <0>        -0.1173
     16 C11        -0.0965   -1.5471   -5.5541 C.3       1 <0>        -0.0544
     17 N1          0.3435   -4.4017   -1.6766 N.3       1 <0>        -0.5944
     18 C12        -0.3619   -5.4668   -2.4018 C.3       1 <0>         0.1760
     19 H3          0.0340   -5.4907   -3.4171 H         1 <0>         0.2109
     20 C13        -1.8209   -5.0796   -2.4851 C.2       1 <0>         0.5103
     21 O3         -2.1512   -4.0332   -3.0065 O.2       1 <0>        -0.3065
     22 N2         -2.7413   -5.9028   -1.9786 N.am      1 <0>        -0.5147
     23 C14        -2.4080   -7.0474   -1.4064 C.ar      1 <0>         0.3706
     24 C15        -3.4079   -7.8957   -0.8802 C.ar      1 <0>        -0.2007
     25 C16        -3.0724   -9.0682   -0.2926 C.ar      1 <0>         0.1190
     26 C17        -1.7429   -9.5047   -0.1723 C.ar      1 <0>        -0.0188
     27 C18        -0.7099   -8.7710   -0.6417 C.ar      1 <0>        -0.1175
     28 C19        -0.9928   -7.4819   -1.2942 C.ar      1 <0>         0.3183
     29 N3         -0.0253   -6.7464   -1.7587 N.pl3     1 <0>        -0.4422
     30 H4          2.1081    1.2380    1.1670 H         1 <0>         0.0729
     31 H5          0.5153    1.6258    0.4735 H         1 <0>         0.0713
     32 H6          0.6605    1.2297    2.2027 H         1 <0>         0.0886
     33 H7          1.3483   -1.0793    1.6162 H         1 <0>         0.0731
     34 H8         -0.2445   -0.6914    0.9226 H         1 <0>         0.0703
     35 H9         -0.1811    0.0160   -2.3829 H         1 <0>         0.0854
     36 H10         1.5495    0.3936   -2.5693 H         1 <0>         0.0971
     37 H11         0.0534    1.6038   -4.2100 H         1 <0>         0.0842
     38 H12         1.3061    0.6001   -4.9789 H         1 <0>         0.0751
     39 H13        -1.5353   -0.3753   -4.4513 H         1 <0>         0.0694
     40 H14        -1.0149    0.3531   -5.9939 H         1 <0>         0.0868
     41 H15         0.6087   -1.3907   -6.3704 H         1 <0>         0.0978
     42 H16        -0.9000   -2.2057   -5.8839 H         1 <0>         0.0857
     43 H17         0.6363   -4.7181   -0.7643 H         1 <0>         0.3988
     44 H18        -4.4464   -7.6068   -0.9469 H         1 <0>         0.2095
     45 H19        -3.8600   -9.6940    0.1004 H         1 <0>         0.2054
     46 H20        -1.5410  -10.4508    0.3079 H         1 <0>         0.2060
     47 H21         0.3057   -9.1237   -0.5393 H         1 <0>         0.2113
     48 H22         0.8974   -7.0358   -1.6827 H         1 <0>         0.4733
     49 H23        -3.6777   -5.6553   -2.0312 H         1 <0>         0.4686
@<TRIPOS>BOND
     1    1    2 1
     2    1   30 1
     3    1   31 1
     4    1   32 1
     5    2    3 1
     6    2   33 1
     7    2   34 1
     8    3    4 1
     9    4    5 2
    10    4    6 1
    11    6    7 1
    12    6   12 1
    13    6    8 1
    14    8    9 1
    15    8   10 1
    16    8   17 1
    17   10   11 1
    18   11   16 1
    19   11   12 2
    20   12   13 1
    21   13   14 1
    22   13   35 1
    23   13   36 1
    24   14   15 1
    25   14   37 1
    26   14   38 1
    27   15   16 1
    28   15   39 1
    29   15   40 1
    30   16   41 1
    31   16   42 1
    32   17   18 1
    33   17   43 1
    34   18   19 1
    35   18   29 1
    36   18   20 1
    37   20   21 2
    38   20   22 am
    39   22   23 2
    40   22   49 1
    41   23   28 ar
    42   23   24 ar
    43   24   25 ar
    44   24   44 1
    45   25   26 ar
    46   25   45 1
    47   26   27 ar
    48   26   46 1
    49   27   28 ar
    50   27   47 1
    51   28   29 2
    52   29   48 1
@<TRIPOS>MOLECULE
ZINC64059632
   57    60     0     0     0
SMALL
USER_CHARGES

@<TRIPOS>ATOM
      1 C1         -0.0187    1.5258    0.0104 C.3       1 <0>        -0.1602
      2 C2          0.0021   -0.0041    0.0020 C.3       1 <0>        -0.1237
      3 C3          0.7182   -0.4975   -1.2568 C.3       1 <0>        -0.1047
      4 C4          0.7386   -2.0043   -1.2651 C.cat     1 <0>         0.5169
      5 N1          1.6741   -2.7167   -0.7404 N.pl3     1 <0>        -0.6183
      6 C5          1.3554   -4.1359   -0.9401 C.3       1 <0>         0.2489
      7 H1          1.2461   -4.6377    0.0213 H         1 <0>         0.1536
      8 O1          0.1079   -4.1460   -1.6519 O.3       1 <0>        -0.1108
      9 N2         -0.2348   -2.7798   -1.8244 N.pl3     1 <0>        -0.5048
     10 C6          2.4478   -4.8133   -1.7700 C.3       1 <0>        -0.1382
     11 C7          2.1622   -6.3136   -1.8615 C.3       1 <0>        -0.1420
     12 C8          3.2382   -6.9808   -2.6790 C.2       1 <0>         0.5191
     13 O2          4.1441   -6.3213   -3.1428 O.2       1 <0>        -0.5266
     14 N3          3.1936   -8.3105   -2.8947 N.am      1 <0>        -0.6162
     15 C9          2.0992   -9.1218   -2.3446 C.3       1 <0>         0.1048
     16 C10         2.6995  -10.2782   -1.5389 C.3       1 <0>        -0.1328
     17 C11         3.6766  -11.0571   -2.4226 C.3       1 <0>        -0.0544
     18 C12         4.8146  -10.1341   -2.8642 C.3       1 <0>        -0.1308
     19 C13         4.2352   -8.9752   -3.6896 C.3       1 <0>         0.1100
     20 C14         4.2435  -12.2160   -1.6437 C.2       1 <0>         0.0656
     21 C15         4.1463  -13.5290   -1.9532 C.ar      1 <0>        -0.1644
     22 C16         3.5071  -14.2440   -3.0644 C.ar      1 <0>        -0.0163
     23 C17         3.5794  -15.5939   -3.1039 C.ar      1 <0>        -0.1467
     24 C18         4.2475  -16.3256   -2.1125 C.ar      1 <0>         0.0570
     25 C19         4.8587  -15.7398   -1.0611 C.ar      1 <0>        -0.2098
     26 C20         4.8459  -14.3247   -0.9193 C.ar      1 <0>         0.3287
     27 N4          5.3558  -13.5343   -0.0062 N.pl3     1 <0>        -0.5864
     28 C21         5.0420  -12.1458   -0.3612 C.3       1 <0>         0.0612
     29 H2          1.0039    1.9031    0.0027 H         1 <0>         0.0676
     30 H3         -0.5459    1.8868   -0.8726 H         1 <0>         0.0685
     31 H4         -0.5289    1.8773    0.9072 H         1 <0>         0.0767
     32 H5          0.5293   -0.3651    0.8851 H         1 <0>         0.0800
     33 H6         -1.0205   -0.3814    0.0098 H         1 <0>         0.0821
     34 H7          0.1910   -0.1364   -2.1398 H         1 <0>         0.1375
     35 H8          1.7408   -0.1202   -1.2645 H         1 <0>         0.1388
     36 H9         -1.0311   -2.4505   -2.2698 H         1 <0>         0.4908
     37 H10         2.4615   -4.3843   -2.7720 H         1 <0>         0.1010
     38 H11         3.4157   -4.6560   -1.2942 H         1 <0>         0.1142
     39 H12         2.1485   -6.7426   -0.8596 H         1 <0>         0.1066
     40 H13         1.1943   -6.4709   -2.3373 H         1 <0>         0.1088
     41 H14         1.4793   -8.5057   -1.6932 H         1 <0>         0.0971
     42 H15         1.4939   -9.5195   -3.1592 H         1 <0>         0.0848
     43 H16         3.2291   -9.8817   -0.6727 H         1 <0>         0.0802
     44 H17         1.9018  -10.9421   -1.2057 H         1 <0>         0.0931
     45 H18         3.1517  -11.4324   -3.3011 H         1 <0>         0.1162
     46 H19         5.3243   -9.7390   -1.9855 H         1 <0>         0.0797
     47 H20         5.5224  -10.6954   -3.4742 H         1 <0>         0.0923
     48 H21         3.8007   -9.3612   -4.6117 H         1 <0>         0.0812
     49 H22         5.0252   -8.2623   -3.9259 H         1 <0>         0.1075
     50 H23         2.9864  -13.7002   -3.8387 H         1 <0>         0.1602
     51 H24         3.1098  -16.1220   -3.9206 H         1 <0>         0.1596
     52 H25         4.2740  -17.4023   -2.1928 H         1 <0>         0.1632
     53 H26         5.3600  -16.3489   -0.3235 H         1 <0>         0.1621
     54 H27         5.9599  -11.5800   -0.5207 H         1 <0>         0.1709
     55 H28         4.4473  -11.6839    0.4268 H         1 <0>         0.1693
     56 H29         5.8597  -13.8196    0.7720 H         1 <0>         0.4567
     57 H30         2.4601   -2.3725   -0.2881 H         1 <0>         0.4744
@<TRIPOS>BOND
     1    1    2 1
     2    1   29 1
     3    1   30 1
     4    1   31 1
     5    2    3 1
     6    2   32 1
     7    2   33 1
     8    3    4 1
     9    3   34 1
    10    3   35 1
    11    4    9 1
    12    4    5 2
    13    5    6 1
    14    5   57 1
    15    6    7 1
    16    6    8 1
    17    6   10 1
    18    8    9 1
    19    9   36 1
    20   10   11 1
    21   10   37 1
    22   10   38 1
    23   11   12 1
    24   11   39 1
    25   11   40 1
    26   12   13 2
    27   12   14 am
    28   14   19 1
    29   14   15 1
    30   15   16 1
    31   15   41 1
    32   15   42 1
    33   16   17 1
    34   16   43 1
    35   16   44 1
    36   17   18 1
    37   17   20 1
    38   17   45 1
    39   18   19 1
    40   18   46 1
    41   18   47 1
    42   19   48 1
    43   19   49 1
    44   20   28 1
    45   20   21 2
    46   21   26 ar
    47   21   22 ar
    48   22   23 ar
    49   22   50 1
    50   23   24 ar
    51   23   51 1
    52   24   25 ar
    53   24   52 1
    54   25   26 ar
    55   25   53 1
    56   26   27 2
    57   27   28 1
    58   27   56 1
    59   28   54 1
    60   28   55 1
@<TRIPOS>MOLECULE
ZINC01870724
   27    27     0     0     0
SMALL
USER_CHARGES
4,4-dimethylcyclohexan-1-amine
@<TRIPOS>ATOM
      1 C1         -2.1642    1.0497    1.2777 C.3       1 <0>        -0.1506
      2 C2         -0.7288    1.5792    1.2668 C.3       1 <0>        -0.0701
      3 C3         -0.0127    1.0858    0.0080 C.3       1 <0>        -0.1086
      4 C4         -0.7527    1.5927   -1.2315 C.3       1 <0>        -0.1458
      5 C5         -0.7734    3.1225   -1.2231 C.3       1 <0>         0.0303
      6 C6         -1.4896    3.6159    0.0357 C.3       1 <0>        -0.1459
      7 C7         -0.7496    3.1091    1.2752 C.3       1 <0>        -0.1086
      8 C8          0.0111    1.0724    2.5063 C.3       1 <0>        -0.1488
      9 H1         -2.1494   -0.0402    1.2717 H         1 <0>         0.0629
     10 H2         -2.6744    1.4012    2.1745 H         1 <0>         0.0630
     11 H3         -2.6914    1.4107    0.3946 H         1 <0>         0.0520
     12 H4          0.0021   -0.0041    0.0020 H         1 <0>         0.0855
     13 H5          1.0099    1.4631    0.0003 H         1 <0>         0.0756
     14 H6         -0.2425    1.2411   -2.1283 H         1 <0>         0.0878
     15 H7         -1.7753    1.2154   -1.2238 H         1 <0>         0.0898
     16 H8          0.2491    3.4998   -1.2308 H         1 <0>         0.1424
     17 H9         -1.5044    4.7058    0.0417 H         1 <0>         0.0877
     18 H10        -2.5122    3.2386    0.0434 H         1 <0>         0.0899
     19 H11         0.2730    3.4864    1.2675 H         1 <0>         0.0756
     20 H12        -1.2598    3.4606    2.1720 H         1 <0>         0.0855
     21 H13        -1.5113    4.6176   -2.4308 H         1 <0>         0.4378
     22 H14        -1.0684    3.2439   -3.2570 H         1 <0>         0.4377
     23 H15         1.0337    1.4497    2.4986 H         1 <0>         0.0598
     24 H16        -0.4990    1.4239    3.4031 H         1 <0>         0.0625
     25 H17         0.0259   -0.0175    2.5003 H         1 <0>         0.0625
     26 N1         -1.5068    3.5992   -2.4089 N.4       1 <0>        -0.6462
     27 H18        -2.4752    3.2608   -2.3654 H         1 <0>         0.4363
@<TRIPOS>BOND
     1    1    2 1
     2    1    9 1
     3    1   10 1
     4    1   11 1
     5    2    7 1
     6    2    3 1
     7    2    8 1
     8    3    4 1
     9    3   12 1
    10    3   13 1
    11    4    5 1
    12    4   14 1
    13    4   15 1
    14    5    6 1
    15    5   16 1
    16    5   26 1
    17    6    7 1
    18    6   17 1
    19    6   18 1
    20    7   19 1
    21    7   20 1
    22    8   23 1
    23    8   24 1
    24    8   25 1
    25   21   26 1
    26   22   26 1
    27   26   27 1
@<TRIPOS>MOLECULE
ZINC19474034
   31    31     0     0     0
SMALL
USER_CHARGES
(3S,6R)-N,N,6-trimethylpiperidine-3-carboxamide
@<TRIPOS>ATOM
      1 C1          3.5053    2.1931    1.1667 C.3       1 <0>        -0.1833
      2 C2          2.0929    1.6055    1.1967 C.3       1 <0>         0.0360
      3 H1          1.5379    1.9771    2.0707 H         1 <0>         0.1334
      4 C3          2.1767    0.0777    1.2237 C.3       1 <0>        -0.1542
      5 C4          0.7612   -0.5061    1.2334 C.3       1 <0>        -0.1164
      6 C5          0.0021   -0.0041    0.0020 C.3       1 <0>        -0.1300
      7 H2         -1.0264   -0.3942    0.0085 H         1 <0>         0.1423
      8 C6         -0.0187    1.5261    0.0104 C.3       1 <0>        -0.0222
      9 N1          1.3585    2.0357    0.0000 N.4       1 <0>        -0.5373
     10 C7          0.6908   -0.4910   -1.2468 C.2       1 <0>         0.4882
     11 O1          1.6884   -1.1755   -1.1615 O.2       1 <0>        -0.5081
     12 N2          0.1982   -0.1659   -2.4585 N.am      1 <0>        -0.6162
     13 C8          0.8678   -0.6393   -3.6725 C.3       1 <0>         0.0755
     14 C9         -1.0067    0.6609   -2.5615 C.3       1 <0>         0.0528
     15 H3          4.0556    1.8709    2.0630 H         1 <0>         0.1070
     16 H4          3.4452    3.2913    1.1483 H         1 <0>         0.0814
     17 H5          4.0305    1.8395    0.2672 H         1 <0>         0.0807
     18 H6          2.7149   -0.2758    0.3319 H         1 <0>         0.1105
     19 H7          2.7142   -0.2441    2.1279 H         1 <0>         0.1113
     20 H8          0.8174   -1.6044    1.2104 H         1 <0>         0.1007
     21 H9          0.2383   -0.1847    2.1462 H         1 <0>         0.0897
     22 H10        -0.5507    1.8904   -0.8808 H         1 <0>         0.1524
     23 H11        -0.5336    1.8809    0.9154 H         1 <0>         0.1426
     24 H12         1.3257    3.1347   -0.0348 H         1 <0>         0.4531
     25 H13         0.3240   -0.2754   -4.5568 H         1 <0>         0.0869
     26 H14         0.8825   -1.7392   -3.6780 H         1 <0>         0.0719
     27 H15         1.8996   -0.2587   -3.6942 H         1 <0>         0.0687
     28 H16        -1.2535    0.8188   -3.6218 H         1 <0>         0.0970
     29 H17        -0.8270    1.6326   -2.0782 H         1 <0>         0.0681
     30 H18        -1.8443    0.1522   -2.0619 H         1 <0>         0.0766
     31 H19         1.8666    1.6554   -0.8985 H         1 <0>         0.4408
@<TRIPOS>BOND
     1    1    2 1
     2    1   15 1
     3    1   16 1
     4    1   17 1
     5    2    3 1
     6    2    9 1
     7    2    4 1
     8    4    5 1
     9    4   18 1
    10    4   19 1
    11    5    6 1
    12    5   20 1
    13    5   21 1
    14    6    7 1
    15    6    8 1
    16    6   10 1
    17    8    9 1
    18    8   22 1
    19    8   23 1
    20    9   24 1
    21    9   31 1
    22   10   11 2
    23   10   12 am
    24   12   13 1
    25   12   14 1
    26   13   25 1
    27   13   26 1
    28   13   27 1
    29   14   28 1
    30   14   29 1
    31   14   30 1
@<TRIPOS>MOLECULE
ZINC39078396
   21    21     0     0     0
SMALL
USER_CHARGES

@<TRIPOS>ATOM
      1 C1          1.4854    0.7610    0.6154 C.3       1 <0>         0.0012
      2 N1          0.5665   -0.3081    0.2169 N.pl3     1 <0>        -0.5685
      3 C2          0.3530   -0.5435   -1.0369 C.cat     1 <0>         0.5288
      4 N2          1.0687    0.1307   -1.9926 N.pl3     1 <0>        -0.5201
      5 C3          1.2450    1.5813   -1.8882 C.3       1 <0>         0.0517
      6 C4          1.6314   -0.5677   -3.0690 C.2       1 <0>         0.2818
      7 C5          1.4599   -1.9336   -3.3461 C.2       1 <0>        -0.2956
      8 C6          2.1617   -2.2211   -4.4658 C.2       1 <0>         0.1094
      9 N3          2.7562   -1.0843   -4.8851 N.pl3     1 <0>        -0.4467
     10 N4          2.4062   -0.0586   -3.9977 N.2       1 <0>        -0.2851
     11 H1          3.3238   -0.9928   -5.6664 H         1 <0>         0.4568
     12 H2          2.4520    0.6069    0.1357 H         1 <0>         0.1083
     13 H3          1.0771    1.7241    0.3089 H         1 <0>         0.1127
     14 H4          1.6108    0.7475    1.6981 H         1 <0>         0.1222
     15 H5         -0.3889   -1.2711   -1.3311 H         1 <0>         0.2340
     16 H6          2.1765    1.7973   -1.3651 H         1 <0>         0.0898
     17 H7          1.2800    2.0159   -2.8872 H         1 <0>         0.1127
     18 H8          0.4096    2.0099   -1.3346 H         1 <0>         0.0941
     19 H9          0.8723   -2.6309   -2.7673 H         1 <0>         0.1609
     20 H10         2.2339   -3.1887   -4.9401 H         1 <0>         0.1967
     21 H11         0.1181   -0.8394    0.8934 H         1 <0>         0.4547
@<TRIPOS>BOND
     1    1    2 1
     2    1   12 1
     3    1   13 1
     4    1   14 1
     5    2    3 2
     6    2   21 1
     7    3    4 1
     8    3   15 1
     9    4    5 1
    10    4    6 1
    11    5   16 1
    12    5   17 1
    13    5   18 1
    14    6    7 1
    15    6   10 2
    16    7   19 1
    17    7    8 2
    18    8   20 1
    19    8    9 1
    20    9   11 1
    21    9   10 1
@<TRIPOS>MOLECULE
ZINC02510218
   29    30     0     0     0
SMALL
USER_CHARGES

@<TRIPOS>ATOM
      1 C1         -0.0162    1.3443    0.0094 C.2       1 <0>        -0.1648
      2 C2          1.3222    1.7843   -0.0010 C.2       1 <0>        -0.1865
      3 C3          2.1074    0.6880   -0.0144 C.2       1 <0>        -0.0067
      4 N1          1.3027   -0.4127   -0.0126 N.pl3     1 <0>        -0.4761
      5 C4          0.0021   -0.0041    0.0020 C.2       1 <0>        -0.0625
      6 C5          1.7602   -1.8044   -0.0249 C.3       1 <0>         0.0869
      7 C6          1.9336   -2.2969    1.4133 C.3       1 <0>         0.0127
      8 H1          2.6029   -1.6239    1.9491 H         1 <0>         0.1443
      9 C7          2.5306   -3.7058    1.4007 C.3       1 <0>        -0.1386
     10 C8          2.7026   -4.1942    2.8419 C.3       1 <0>        -0.1380
     11 C9          1.3469   -4.1447    3.5524 C.3       1 <0>        -0.1482
     12 C10         0.7937   -2.7196    3.4853 C.3       1 <0>        -0.0063
     13 N2          0.6273   -2.3218    2.0822 N.4       1 <0>        -0.5056
     14 H2         -0.8952    1.9716    0.0252 H         1 <0>         0.1452
     15 H3          1.6577    2.8109    0.0008 H         1 <0>         0.1457
     16 H4          3.1873    0.6828   -0.0247 H         1 <0>         0.1700
     17 H5         -0.8642   -0.6491    0.0068 H         1 <0>         0.1651
     18 H6          1.0231   -2.4246   -0.5349 H         1 <0>         0.1130
     19 H7          2.7140   -1.8687   -0.5485 H         1 <0>         0.1344
     20 H8          1.8619   -4.3797    0.8653 H         1 <0>         0.0931
     21 H9          3.5012   -3.6854    0.9051 H         1 <0>         0.1157
     22 H10         3.0746   -5.2188    2.8376 H         1 <0>         0.0989
     23 H11         3.4109   -3.5502    3.3630 H         1 <0>         0.0838
     24 H12         0.6536   -4.8278    3.0617 H         1 <0>         0.0896
     25 H13         1.4713   -4.4381    4.5948 H         1 <0>         0.1149
     26 H14        -0.1714   -2.6808    3.9904 H         1 <0>         0.1356
     27 H15         1.4876   -2.0375    3.9765 H         1 <0>         0.1306
     28 H16         0.2122   -1.4030    2.0415 H         1 <0>         0.4291
     29 H17         0.0240   -2.9821    1.6152 H         1 <0>         0.4247
@<TRIPOS>BOND
     1    1    5 2
     2    1    2 1
     3    1   14 1
     4    2    3 2
     5    2   15 1
     6    3    4 1
     7    3   16 1
     8    4    5 1
     9    4    6 1
    10    5   17 1
    11    6    7 1
    12    6   18 1
    13    6   19 1
    14    7    8 1
    15    7   13 1
    16    7    9 1
    17    9   10 1
    18    9   20 1
    19    9   21 1
    20   10   11 1
    21   10   22 1
    22   10   23 1
    23   11   12 1
    24   11   24 1
    25   11   25 1
    26   12   13 1
    27   12   26 1
    28   12   27 1
    29   13   28 1
    30   13   29 1
@<TRIPOS>MOLECULE
ZINC52298959
   33    34     0     0     0
SMALL
USER_CHARGES

@<TRIPOS>ATOM
      1 C1         -0.8694   -1.6089    3.0513 C.3       1 <0>        -0.1550
      2 C2         -0.4402   -1.6338    1.5830 C.3       1 <0>        -0.1220
      3 H1         -1.2234   -1.8873    0.8685 H         1 <0>         0.1443
      4 C3          0.9811   -2.1060    1.2703 C.3       1 <0>        -0.1584
      5 C4          0.6205   -0.6241    1.1398 C.3       1 <0>        -0.0913
      6 H2          0.5353   -0.2136    0.1336 H         1 <0>         0.1778
      7 N1          1.1488    0.2950    2.1567 N.4       1 <0>        -0.3327
      8 C5          1.9321    1.3492    1.4821 C.3       1 <0>        -0.0344
      9 C6          1.9868    2.5532    2.3880 C.3       1 <0>         0.0322
     10 N2          3.2227    2.5723    3.2009 N.3       1 <0>        -0.6917
     11 C7          3.6073    1.2420    3.7263 C.3       1 <0>         0.0462
     12 C8          2.4266    0.4500    4.2266 C.3       1 <0>        -0.1026
     13 H3          1.6409    1.1322    4.5511 H         1 <0>         0.1008
     14 C9          1.8974   -0.4404    3.0817 C.3       1 <0>        -0.0547
     15 C10         2.8602   -0.4280    5.4022 C.3       1 <0>        -0.1497
     16 H4         -1.0679   -0.5809    3.3545 H         1 <0>         0.0661
     17 H5         -1.7732   -2.2054    3.1759 H         1 <0>         0.0965
     18 H6         -0.0729   -2.0227    3.6697 H         1 <0>         0.0737
     19 H7          1.6104   -2.3990    2.1107 H         1 <0>         0.1238
     20 H8          1.1331   -2.6699    0.3499 H         1 <0>         0.1339
     21 H9          2.9425    0.9890    1.2887 H         1 <0>         0.1288
     22 H10         1.4515    1.6188    0.5417 H         1 <0>         0.1398
     23 H11         1.9474    3.4572    1.7802 H         1 <0>         0.1182
     24 H12         1.1239    2.5364    3.0537 H         1 <0>         0.0904
     25 H13         3.9845    2.9938    2.6909 H         1 <0>         0.3653
     26 H14         4.0980    0.6787    2.9326 H         1 <0>         0.0421
     27 H15         4.3126    1.3780    4.5462 H         1 <0>         0.1024
     28 H16         1.2694   -1.2253    3.5033 H         1 <0>         0.1412
     29 H17         2.7426   -0.9003    2.5696 H         1 <0>         0.1297
     30 H18         3.2405    0.2026    6.2058 H         1 <0>         0.0825
     31 H19         2.0054   -1.0002    5.7630 H         1 <0>         0.0697
     32 H20         3.6434   -1.1120    5.0754 H         1 <0>         0.0690
     33 H21         0.3735    0.7266    2.6369 H         1 <0>         0.4180
@<TRIPOS>BOND
     1    1    2 1
     2    1   16 1
     3    1   17 1
     4    1   18 1
     5    2    3 1
     6    2    5 1
     7    2    4 1
     8    4    5 1
     9    4   19 1
    10    4   20 1
    11    5    6 1
    12    5    7 1
    13    7   14 1
    14    7    8 1
    15    7   33 1
    16    8    9 1
    17    8   21 1
    18    8   22 1
    19    9   10 1
    20    9   23 1
    21    9   24 1
    22   10   11 1
    23   10   25 1
    24   11   12 1
    25   11   26 1
    26   11   27 1
    27   12   13 1
    28   12   14 1
    29   12   15 1
    30   14   28 1
    31   14   29 1
    32   15   30 1
    33   15   31 1
    34   15   32 1
@<TRIPOS>MOLECULE
ZINC00119602
   35    36     0     0     0
SMALL
USER_CHARGES
8-dimethylamino-7-ethyl-1,3-dimethyl-purine-2,6-dione
@<TRIPOS>ATOM
      1 C1         -0.6883    0.9657    0.5013 C.3       1 <0>        -0.1712
      2 C2         -1.0045    1.3433    1.9499 C.3       1 <0>         0.1015
      3 N1          0.0437    0.8216    2.8305 N.pl3     1 <0>        -0.4058
      4 C3          0.1181   -0.4591    3.3615 C.2       1 <0>        -0.1546
      5 C4          1.2771   -0.4979    4.1292 C.2       1 <0>         0.3350
      6 N2          1.8479    0.7056    4.0571 N.2       1 <0>        -0.5187
      7 C5          1.1283    1.4997    3.2904 C.2       1 <0>         0.4642
      8 N3          1.4281    2.8109    3.0006 N.pl3     1 <0>        -0.4655
      9 C6          2.4278    3.3418    3.9369 C.3       1 <0>         0.0382
     10 C7          1.8814    2.9524    1.6104 C.3       1 <0>         0.0160
     11 N4          1.6062   -1.6749    4.7822 N.am      1 <0>        -0.5107
     12 C8          0.8055   -2.7521    4.6751 C.2       1 <0>         0.7075
     13 O1          1.1072   -3.7756    5.2582 O.2       1 <0>        -0.5327
     14 N5         -0.3152   -2.7261    3.9333 N.am      1 <0>        -0.5520
     15 C9         -0.6844   -1.6101    3.2713 C.2       1 <0>         0.5947
     16 O2         -1.7027   -1.5998    2.6018 O.2       1 <0>        -0.5137
     17 C10        -1.1479   -3.9279    3.8420 C.3       1 <0>         0.0842
     18 C11         2.8184   -1.7427    5.6020 C.3       1 <0>         0.0899
     19 H1         -0.7311   -0.1179    0.3907 H         1 <0>         0.0683
     20 H2          0.3105    1.3180    0.2438 H         1 <0>         0.0624
     21 H3         -1.4190    1.4278   -0.1624 H         1 <0>         0.0843
     22 H4         -1.0488    2.4286    2.0411 H         1 <0>         0.1063
     23 H5         -1.9653    0.9151    2.2355 H         1 <0>         0.1049
     24 H6          3.3410    2.7509    3.8670 H         1 <0>         0.0560
     25 H7          2.6464    4.3796    3.6852 H         1 <0>         0.0848
     26 H8          2.0377    3.2889    4.9534 H         1 <0>         0.0803
     27 H9          1.0533    2.7386    0.9347 H         1 <0>         0.0811
     28 H10         2.2320    3.9711    1.4445 H         1 <0>         0.0938
     29 H11         2.6952    2.2526    1.4206 H         1 <0>         0.0471
     30 H12        -0.8182   -4.5352    2.9990 H         1 <0>         0.0761
     31 H13        -1.0564   -4.5042    4.7627 H         1 <0>         0.0961
     32 H14        -2.1886   -3.6386    3.6963 H         1 <0>         0.0949
     33 H15         2.5811   -1.4546    6.6261 H         1 <0>         0.0731
     34 H16         3.2074   -2.7609    5.5920 H         1 <0>         0.0936
     35 H17         3.5688   -1.0631    5.1980 H         1 <0>         0.0908
@<TRIPOS>BOND
     1    1    2 1
     2    1   19 1
     3    1   20 1
     4    1   21 1
     5    2    3 1
     6    2   22 1
     7    2   23 1
     8    3    7 1
     9    3    4 1
    10    4   15 1
    11    4    5 2
    12    5    6 1
    13    5   11 1
    14    6    7 2
    15    7    8 1
    16    8    9 1
    17    8   10 1
    18    9   24 1
    19    9   25 1
    20    9   26 1
    21   10   27 1
    22   10   28 1
    23   10   29 1
    24   11   12 am
    25   11   18 1
    26   12   13 2
    27   12   14 am
    28   14   15 am
    29   14   17 1
    30   15   16 2
    31   17   30 1
    32   17   31 1
    33   17   32 1
    34   18   33 1
    35   18   34 1
    36   18   35 1
@<TRIPOS>MOLECULE
ZINC00333298
   30    30     0     0     0
SMALL
USER_CHARGES
(1S,2S)-3,3,4,4-tetramethoxycyclobutane-1,2-dicarbonitrile
@<TRIPOS>ATOM
      1 C1         -0.3576    1.9293    2.3879 C.3       1 <0>         0.0173
      2 O1         -1.1365    2.2641    1.2376 O.3       1 <0>        -0.3621
      3 C2         -2.2696    1.4170    1.0362 C.3       1 <0>         0.2547
      4 C3         -3.3042    1.9947    0.0561 C.3       1 <0>        -0.0017
      5 H1         -3.2976    1.5113   -0.9208 H         1 <0>         0.1508
      6 C4         -4.3877    1.4537    1.0038 C.3       1 <0>        -0.0006
      7 H2         -5.2334    2.1294    1.1312 H         1 <0>         0.1516
      8 C5         -3.3435    1.5548    2.1282 C.3       1 <0>         0.2576
      9 O2         -3.3765    0.4554    3.0406 O.3       1 <0>        -0.3619
     10 C6         -2.2099    0.3434    3.8581 C.3       1 <0>         0.0151
     11 O3         -3.3304    2.8226    2.7873 O.3       1 <0>        -0.3502
     12 C7         -4.3388    2.9672    3.7894 C.3       1 <0>         0.0251
     13 C8         -4.7997    0.0726    0.7041 C.1       1 <0>         0.2283
     14 N1         -5.1176   -0.9932    0.4728 N.1       1 <0>        -0.3823
     15 C9         -3.2774    3.4638   -0.0314 C.1       1 <0>         0.2288
     16 N2         -3.2568    4.5977   -0.0989 N.1       1 <0>        -0.3819
     17 O4         -1.9076    0.0631    0.7569 O.3       1 <0>        -0.3495
     18 C10        -1.1075   -0.0944   -0.4166 C.3       1 <0>         0.0237
     19 H3         -0.9497    2.0938    3.2881 H         1 <0>         0.0590
     20 H4          0.5330    2.5571    2.4190 H         1 <0>         0.0939
     21 H5         -0.0618    0.8816    2.3340 H         1 <0>         0.0550
     22 H6         -2.3428   -0.4701    4.5714 H         1 <0>         0.0949
     23 H7         -1.3439    0.1372    3.2291 H         1 <0>         0.0612
     24 H8         -2.0531    1.2775    4.3975 H         1 <0>         0.0539
     25 H9         -4.1466    2.2667    4.6020 H         1 <0>         0.0562
     26 H10        -4.3229    3.9860    4.1766 H         1 <0>         0.1000
     27 H11        -5.3162    2.7593    3.3540 H         1 <0>         0.0532
     28 H12        -0.9502   -1.1556   -0.6093 H         1 <0>         0.1004
     29 H13        -1.6174    0.3578   -1.2673 H         1 <0>         0.0521
     30 H14        -0.1447    0.3946   -0.2682 H         1 <0>         0.0575
@<TRIPOS>BOND
     1    1    2 1
     2    1   19 1
     3    1   20 1
     4    1   21 1
     5    2    3 1
     6    3    8 1
     7    3    4 1
     8    3   17 1
     9    4    5 1
    10    4    6 1
    11    4   15 1
    12    6    7 1
    13    6    8 1
    14    6   13 1
    15    8    9 1
    16    8   11 1
    17    9   10 1
    18   10   22 1
    19   10   23 1
    20   10   24 1
    21   11   12 1
    22   12   25 1
    23   12   26 1
    24   12   27 1
    25   13   14 3
    26   15   16 3
    27   17   18 1
    28   18   28 1
    29   18   29 1
    30   18   30 1
@<TRIPOS>MOLECULE
ZINC34957053
   29    30     0     0     0
SMALL
USER_CHARGES

@<TRIPOS>ATOM
      1 C1          1.1370    1.2416   -0.2878 C.3       1 <0>        -0.0800
      2 C2          0.5183   -0.1235   -0.1303 C.2       1 <0>         0.1014
      3 C3         -0.4454   -0.6883   -0.9740 C.2       1 <0>        -0.2471
      4 C4         -0.7444   -1.9197   -0.5006 C.2       1 <0>         0.0959
      5 N1          0.0092   -2.1269    0.6110 N.pl3     1 <0>        -0.3550
      6 N2          0.7944   -0.9847    0.8149 N.2       1 <0>        -0.2897
      7 C5          0.0053   -3.2749    1.4051 C.ar      1 <0>         0.2580
      8 C6          0.1187   -4.5277    0.8202 C.ar      1 <0>        -0.1347
      9 C7          0.1146   -5.6623    1.6073 C.ar      1 <0>        -0.0054
     10 C8         -0.0029   -5.5615    2.9845 C.ar      1 <0>        -0.0629
     11 C9         -0.1166   -4.3269    3.5847 C.ar      1 <0>         0.0186
     12 C10        -0.1078   -3.1672    2.8013 C.ar      1 <0>        -0.1820
     13 C11        -0.2220   -1.8469    3.4341 C.2       1 <0>         0.3897
     14 O1         -0.2298   -1.7525    4.6433 O.2       1 <0>        -0.4387
     15 N3         -0.0067   -6.7869    3.8148 N.pl3     1 <0>         0.0319
     16 O2          0.0925   -7.8721    3.2912 O.2       1 <0>        -0.1463
     17 O3         -0.1091   -6.7025    5.0165 O.3       1 <0>        -0.1466
     18 C12        -1.7346   -2.8863   -1.0974 C.3       1 <0>        -0.1021
     19 H1          2.0287    1.1667   -0.9102 H         1 <0>         0.0848
     20 H2          0.4199    1.9133   -0.7597 H         1 <0>         0.0855
     21 H3          1.4100    1.6321    0.6925 H         1 <0>         0.0786
     22 H4         -0.8748   -0.2227   -1.8488 H         1 <0>         0.1613
     23 H5          0.2100   -4.6157   -0.2523 H         1 <0>         0.1615
     24 H6          0.2032   -6.6350    1.1464 H         1 <0>         0.1707
     25 H7         -0.2083   -4.2538    4.6583 H         1 <0>         0.1733
     26 H8         -0.2991   -0.9599    2.8227 H         1 <0>         0.1203
     27 H9         -1.2486   -3.4662   -1.8820 H         1 <0>         0.0901
     28 H10        -2.0987   -3.5591   -0.3209 H         1 <0>         0.0732
     29 H11        -2.5727   -2.3328   -1.5208 H         1 <0>         0.0956
@<TRIPOS>BOND
     1    1    2 1
     2    1   19 1
     3    1   20 1
     4    1   21 1
     5    2    6 2
     6    2    3 1
     7    3    4 2
     8    3   22 1
     9    4    5 1
    10    4   18 1
    11    5    6 1
    12    5    7 1
    13    7   12 ar
    14    7    8 ar
    15    8    9 ar
    16    8   23 1
    17    9   10 ar
    18    9   24 1
    19   10   11 ar
    20   10   15 1
    21   11   12 ar
    22   11   25 1
    23   12   13 1
    24   13   14 2
    25   13   26 1
    26   15   16 2
    27   15   17 1
    28   18   27 1
    29   18   28 1
    30   18   29 1
@<TRIPOS>MOLECULE
ZINC39930510
   14    16     0     0     0
SMALL
USER_CHARGES

@<TRIPOS>ATOM
      1 C1         -0.0163    1.3527    0.0095 C.2       1 <0>        -0.0797
      2 C2          1.1389    2.1866    0.0029 C.2       1 <0>         0.4678
      3 O1          1.0267    3.4008    0.0113 O.2       1 <0>        -0.3724
      4 C3          2.4639    1.5614   -0.0135 C.2       1 <0>         0.0215
      5 C4          2.4310    0.1994   -0.0203 C.2       1 <0>        -0.1551
      6 C5          1.3054   -0.6903   -0.0147 C.2       1 <0>         0.2290
      7 C6          0.0021   -0.0041    0.0020 C.2       1 <0>        -0.0106
      8 Br1        -1.6101   -0.9923    0.0122 Br        1 <0>         0.0418
      9 N1          1.8467   -1.8762   -0.0264 N.2       1 <0>        -0.2000
     10 O2          3.2747   -1.7482   -0.0392 O.3       1 <0>         0.1122
     11 N2          3.6220   -0.3737   -0.0350 N.pl3     1 <0>        -0.1098
     12 N3          4.4157    0.6393   -0.0375 N.2       1 <0>         0.0306
     13 N4          3.7773    1.7824   -0.0254 N.2       1 <0>        -0.1681
     14 H1         -0.9811    1.8379    0.0260 H         1 <0>         0.1927
@<TRIPOS>BOND
     1    1    7 2
     2    1    2 1
     3    1   14 1
     4    2    3 2
     5    2    4 1
     6    4   13 1
     7    4    5 2
     8    5   11 1
     9    5    6 1
    10    6    7 1
    11    6    9 2
    12    7    8 1
    13    9   10 1
    14   10   11 1
    15   11   12 1
    16   12   13 2
@<TRIPOS>MOLECULE
ZINC49177186
   36    37     0     0     0
SMALL
USER_CHARGES

@<TRIPOS>ATOM
      1 C1          0.0639    1.4792    0.0270 C.3       1 <0>        -0.1461
      2 C2          0.0502   -0.0507    0.0297 C.3       1 <0>         0.0714
      3 H1          0.5586   -0.4209   -0.8606 H         1 <0>         0.0598
      4 C3         -1.3992   -0.5498    0.0364 C.3       1 <0>         0.1124
      5 N1         -1.3868   -2.0087    0.2278 N.pl3     1 <0>        -0.6373
      6 C4         -0.5963   -2.5534    1.3430 C.3       1 <0>         0.1220
      7 C5          0.8141   -1.9567    1.2726 C.3       1 <0>         0.0994
      8 O1          0.7203   -0.5322    1.1972 O.3       1 <0>        -0.3609
      9 C6          1.5319   -2.4871    0.0299 C.3       1 <0>        -0.1827
     10 C7          1.5991   -2.3515    2.5251 C.3       1 <0>        -0.1390
     11 C8         -2.1041   -2.8511   -0.6231 C.2       1 <0>         0.3405
     12 C9         -3.3433   -3.3527   -0.4072 C.2       1 <0>         0.0325
     13 N2         -3.6744   -4.1148   -1.4616 N.2       1 <0>        -0.4394
     14 C10        -2.6964   -4.1096   -2.3239 C.2       1 <0>         0.2284
     15 N3         -1.6930   -3.3255   -1.8410 N.pl3     1 <0>        -0.4657
     16 C11        -0.4142   -3.0448   -2.4982 C.3       1 <0>         0.0663
     17 N4         -4.1861   -3.1046    0.7848 N.pl3     1 <0>         0.0736
     18 O2         -3.8187   -2.3256    1.6333 O.2       1 <0>        -0.1456
     19 O3         -5.2415   -3.6809    0.9095 O.3       1 <0>        -0.1417
     20 H2          1.0948    1.8333    0.0240 H         1 <0>         0.0692
     21 H3         -0.4487    1.8456   -0.8624 H         1 <0>         0.0724
     22 H4         -0.4446    1.8487    0.9175 H         1 <0>         0.0701
     23 H5         -1.9464   -0.0772    0.8521 H         1 <0>         0.0833
     24 H6         -1.8751   -0.3082   -0.9140 H         1 <0>         0.0764
     25 H7         -1.0626   -2.2825    2.2903 H         1 <0>         0.0832
     26 H8         -0.5404   -3.6386    1.2579 H         1 <0>         0.0762
     27 H9          1.0232   -2.1278   -0.8646 H         1 <0>         0.0616
     28 H10         2.5632   -2.1344    0.0278 H         1 <0>         0.0685
     29 H11         1.5207   -3.5770    0.0413 H         1 <0>         0.0639
     30 H12         1.6671   -3.4378    2.5839 H         1 <0>         0.0726
     31 H13         2.6017   -1.9270    2.4743 H         1 <0>         0.0699
     32 H14         1.0878   -1.9711    3.4094 H         1 <0>         0.0703
     33 H15        -2.6852   -4.6369   -3.2664 H         1 <0>         0.2330
     34 H16         0.3441   -3.7342   -2.1269 H         1 <0>         0.0887
     35 H17        -0.5238   -3.1710   -3.5753 H         1 <0>         0.1024
     36 H18        -0.1113   -2.0204   -2.2813 H         1 <0>         0.0905
@<TRIPOS>BOND
     1    1    2 1
     2    1   20 1
     3    1   21 1
     4    1   22 1
     5    2    3 1
     6    2    8 1
     7    2    4 1
     8    4    5 1
     9    4   23 1
    10    4   24 1
    11    5    6 1
    12    5   11 1
    13    6    7 1
    14    6   25 1
    15    6   26 1
    16    7    8 1
    17    7    9 1
    18    7   10 1
    19    9   27 1
    20    9   28 1
    21    9   29 1
    22   10   30 1
    23   10   31 1
    24   10   32 1
    25   11   15 1
    26   11   12 2
    27   12   13 1
    28   12   17 1
    29   13   14 2
    30   14   15 1
    31   14   33 1
    32   15   16 1
    33   16   34 1
    34   16   35 1
    35   16   36 1
    36   17   18 2
    37   17   19 1
@<TRIPOS>MOLECULE
ZINC12587787
   63    65     0     0     0
SMALL
USER_CHARGES
2-(azepan-1-yl)-N-[(3R)-1-(cyclohexylmethyl)-3-piperidyl]acetamide
@<TRIPOS>ATOM
      1 C1        -10.1597    3.3540    0.1439 C.3       1 <0>        -0.1332
      2 C2        -10.8197    2.0667   -0.0441 C.3       1 <0>        -0.1347
      3 C3         -9.8656    0.8804    0.2083 C.3       1 <0>        -0.1389
      4 C4         -8.9929    0.7034   -1.0043 C.3       1 <0>         0.0019
      5 C5         -7.7981    2.7768   -0.3114 C.3       1 <0>        -0.0053
      6 C6         -8.9791    3.5512   -0.8299 C.3       1 <0>        -0.1413
      7 C7         -6.7112    0.6074   -0.1728 C.3       1 <0>        -0.0259
      8 C8         -5.3539    1.2518   -0.2898 C.2       1 <0>         0.5104
      9 O1         -5.2249    2.2853   -0.9113 O.2       1 <0>        -0.5116
     10 N1         -4.2835    0.6797    0.2961 N.am      1 <0>        -0.7067
     11 C9         -2.9641    1.3061    0.1823 C.3       1 <0>         0.1277
     12 H1         -3.0739    2.3905    0.1868 H         1 <0>         0.1157
     13 C10        -2.2997    0.8649   -1.1248 C.3       1 <0>        -0.1501
     14 C11        -0.8981    1.4758   -1.2072 C.3       1 <0>        -0.1448
     15 C12        -0.0847    1.0409    0.0139 C.3       1 <0>        -0.0081
     16 C13        -2.0908    0.8761    1.3632 C.3       1 <0>        -0.0172
     17 C14         0.0589    1.2086    2.4247 C.3       1 <0>        -0.0043
     18 C15        -0.4675    2.0195    3.6106 C.3       1 <0>        -0.1134
     19 C16        -0.3031    3.5127    3.3205 C.3       1 <0>        -0.1289
     20 C17        -0.8296    4.3235    4.5064 C.3       1 <0>        -0.1189
     21 C18        -0.0395    3.9584    5.7648 C.3       1 <0>        -0.1286
     22 C19        -0.2039    2.4652    6.0548 C.3       1 <0>        -0.1220
     23 C20         0.3225    1.6543    4.8689 C.3       1 <0>        -0.1127
     24 H2        -10.8864    4.1507   -0.0151 H         1 <0>         0.0874
     25 H3         -9.7885    3.4151    1.1670 H         1 <0>         0.0715
     26 H4        -11.1951    2.0075   -1.0657 H         1 <0>         0.0764
     27 H5        -11.6613    1.9966    0.6450 H         1 <0>         0.0875
     28 H6        -10.4459   -0.0267    0.3775 H         1 <0>         0.1141
     29 H7         -9.2442    1.0854    1.0800 H         1 <0>         0.0824
     30 H8         -9.5264    1.0759   -1.8787 H         1 <0>         0.1324
     31 H9         -8.7947   -0.3595   -1.1426 H         1 <0>         0.1275
     32 H10        -7.8824    2.6906    0.7719 H         1 <0>         0.1231
     33 H11        -6.8865    3.3255   -0.5482 H         1 <0>         0.1400
     34 H12        -9.2538    3.1822   -1.8180 H         1 <0>         0.0868
     35 H13        -8.7280    4.6101   -0.8913 H         1 <0>         0.1114
     36 H14        -6.6772   -0.3924   -0.6055 H         1 <0>         0.1615
     37 H15        -6.9915    0.5391    0.8783 H         1 <0>         0.1639
     38 H16        -4.3868   -0.1469    0.7932 H         1 <0>         0.4179
     39 H17        -2.8965    1.2070   -1.9703 H         1 <0>         0.0993
     40 H18        -2.2251   -0.2223   -1.1466 H         1 <0>         0.0896
     41 H19        -0.9754    2.5629   -1.2246 H         1 <0>         0.0925
     42 H20        -0.4037    1.1309   -2.1154 H         1 <0>         0.1234
     43 H21         0.0039   -0.0455    0.0232 H         1 <0>         0.1357
     44 H22         0.9091    1.4859   -0.0344 H         1 <0>         0.1380
     45 H23        -2.5540    1.2013    2.2948 H         1 <0>         0.1366
     46 H24        -1.9927   -0.2095    1.3660 H         1 <0>         0.1402
     47 H25         0.0082    0.1456    2.6602 H         1 <0>         0.1361
     48 H26         1.0935    1.4874    2.2245 H         1 <0>         0.1376
     49 H27        -1.5225    1.7934    3.7656 H         1 <0>         0.0897
     50 H28         0.7518    3.7387    3.1655 H         1 <0>         0.0834
     51 H29        -0.8660    3.7728    2.4241 H         1 <0>         0.0509
     52 H30        -1.8845    4.0975    4.6614 H         1 <0>         0.0644
     53 H31        -0.7125    5.3873    4.2998 H         1 <0>         0.0748
     54 H32        -0.4146    4.5361    6.6096 H         1 <0>         0.0736
     55 H33         1.0155    4.1844    5.6098 H         1 <0>         0.0692
     56 H34        -1.2589    2.2391    6.2098 H         1 <0>         0.0649
     57 H35         0.3589    2.2050    6.9513 H         1 <0>         0.0772
     58 H36         0.2054    0.5905    5.0755 H         1 <0>         0.0749
     59 H37         1.3775    1.8804    4.7139 H         1 <0>         0.0774
     60 N2         -7.6721    1.4171   -0.9386 N.4       1 <0>        -0.3935
     61 H38        -7.3190    1.5335   -1.8957 H         1 <0>         0.4358
     62 N3         -0.7645    1.5168    1.2374 N.4       1 <0>        -0.3914
     63 H39        -0.8906    2.5338    1.1741 H         1 <0>         0.4267
@<TRIPOS>BOND
     1    1    6 1
     2    1    2 1
     3    1   24 1
     4    1   25 1
     5    2    3 1
     6    2   26 1
     7    2   27 1
     8    3    4 1
     9    3   28 1
    10    3   29 1
    11    4   30 1
    12    4   31 1
    13    4   60 1
    14    5    6 1
    15    5   32 1
    16    5   33 1
    17    5   60 1
    18    6   34 1
    19    6   35 1
    20    7    8 1
    21    7   36 1
    22    7   37 1
    23    7   60 1
    24    8    9 2
    25    8   10 am
    26   10   11 1
    27   10   38 1
    28   11   12 1
    29   11   16 1
    30   11   13 1
    31   13   14 1
    32   13   39 1
    33   13   40 1
    34   14   15 1
    35   14   41 1
    36   14   42 1
    37   15   43 1
    38   15   44 1
    39   15   62 1
    40   16   45 1
    41   16   46 1
    42   16   62 1
    43   17   18 1
    44   17   47 1
    45   17   48 1
    46   17   62 1
    47   18   23 1
    48   18   19 1
    49   18   49 1
    50   19   20 1
    51   19   50 1
    52   19   51 1
    53   20   21 1
    54   20   52 1
    55   20   53 1
    56   21   22 1
    57   21   54 1
    58   21   55 1
    59   22   23 1
    60   22   56 1
    61   22   57 1
    62   23   58 1
    63   23   59 1
    64   60   61 1
    65   62   63 1
@<TRIPOS>MOLECULE
ZINC39777257
   56    59     0     0     0
SMALL
USER_CHARGES

@<TRIPOS>ATOM
      1 C1         -0.0187    1.5258    0.0104 C.3       1 <0>        -0.1388
      2 C2          0.0021   -0.0041    0.0020 C.3       1 <0>        -0.0366
      3 C3          0.7421   -0.5109    1.2415 C.3       1 <0>        -0.1431
      4 C4         -1.4333   -0.5336    0.0129 C.3       1 <0>        -0.1483
      5 C5          0.7074   -0.4901   -1.2379 C.ar      1 <0>        -0.0421
      6 C6          0.0361   -1.2843   -2.1485 C.ar      1 <0>        -0.1224
      7 C7          0.6831   -1.7301   -3.2859 C.ar      1 <0>        -0.0961
      8 C8          2.0014   -1.3813   -3.5127 C.ar      1 <0>        -0.1375
      9 C9          2.6724   -0.5863   -2.6025 C.ar      1 <0>        -0.0936
     10 C10         2.0241   -0.1370   -1.4673 C.ar      1 <0>        -0.1168
     11 C11         2.7070   -1.8681   -4.7521 C.3       1 <0>         0.1580
     12 N1          2.5202   -0.8976   -5.8335 N.pl3     1 <0>        -0.7186
     13 C12         3.0870   -1.1330   -7.0898 C.ar      1 <0>         0.2731
     14 C13         3.8226   -2.2894   -7.3153 C.ar      1 <0>        -0.1437
     15 C14         4.3812   -2.5200   -8.5571 C.ar      1 <0>        -0.0502
     16 C15         4.2083   -1.5994   -9.5771 C.ar      1 <0>         0.0736
     17 C16         3.4755   -0.4461   -9.3545 C.ar      1 <0>        -0.1109
     18 C17         2.9105   -0.2138   -8.1155 C.ar      1 <0>        -0.2427
     19 C18         2.1076    1.0388   -7.8757 C.3       1 <0>         0.1080
     20 H1          1.3002    0.7849   -7.1889 H         1 <0>         0.2100
     21 C19         3.0065    2.0367   -7.1817 C.2       1 <0>         0.4939
     22 O1          3.5330    1.7585   -6.1228 O.2       1 <0>        -0.3085
     23 N2          3.2143    3.2273   -7.7481 N.am      1 <0>        -0.5175
     24 C20         2.6536    3.5544   -8.9000 C.ar      1 <0>         0.3785
     25 C21         2.8948    4.8237   -9.4720 C.ar      1 <0>        -0.2053
     26 C22         2.3226    5.1642  -10.6506 C.ar      1 <0>         0.1336
     27 C23         1.4749    4.2992  -11.3617 C.ar      1 <0>        -0.0180
     28 C24         1.1780    3.0627  -10.9050 C.ar      1 <0>        -0.1150
     29 C25         1.7613    2.6177   -9.6286 C.ar      1 <0>         0.3233
     30 N3          1.5000    1.4341   -9.1559 N.pl3     1 <0>        -0.3985
     31 F1          4.7560   -1.8268  -10.7909 F         1 <0>        -0.1217
     32 H2          1.0039    1.9031    0.0027 H         1 <0>         0.0565
     33 H3         -0.5459    1.8868   -0.8726 H         1 <0>         0.0527
     34 H4         -0.5289    1.8773    0.9072 H         1 <0>         0.0665
     35 H5          0.2319   -0.1594    2.1383 H         1 <0>         0.0665
     36 H6          0.7568   -1.6008    1.2356 H         1 <0>         0.0596
     37 H7          1.7647   -0.1336    1.2338 H         1 <0>         0.0580
     38 H8         -1.9605   -0.1726   -0.8702 H         1 <0>         0.0570
     39 H9         -1.4185   -1.6235    0.0069 H         1 <0>         0.0616
     40 H10        -1.9435   -0.1821    0.9097 H         1 <0>         0.0660
     41 H11        -0.9938   -1.5568   -1.9713 H         1 <0>         0.1341
     42 H12         0.1588   -2.3512   -3.9970 H         1 <0>         0.1238
     43 H13         3.7024   -0.3141   -2.7796 H         1 <0>         0.1227
     44 H14         2.5473    0.4872   -0.7580 H         1 <0>         0.1276
     45 H15         3.7711   -1.9799   -4.5441 H         1 <0>         0.0857
     46 H16         2.2923   -2.8305   -5.0520 H         1 <0>         0.0870
     47 H17         2.0032   -0.0917   -5.6780 H         1 <0>         0.3944
     48 H18         3.9580   -3.0074   -6.5201 H         1 <0>         0.1600
     49 H19         4.9535   -3.4189   -8.7328 H         1 <0>         0.1623
     50 H20         3.3419    0.2705  -10.1514 H         1 <0>         0.1250
     51 H21         3.5395    5.5267   -8.9655 H         1 <0>         0.2132
     52 H22         2.5263    6.1422  -11.0612 H         1 <0>         0.2097
     53 H23         1.0491    4.6310  -12.2972 H         1 <0>         0.2108
     54 H24         0.5236    2.4123  -11.4663 H         1 <0>         0.2172
     55 H25         3.7906    3.8685   -7.3035 H         1 <0>         0.4705
     56 H26         0.9167    0.8263   -9.6369 H         1 <0>         0.4854
@<TRIPOS>BOND
     1    1    2 1
     2    1   32 1
     3    1   33 1
     4    1   34 1
     5    2    3 1
     6    2    4 1
     7    2    5 1
     8    3   35 1
     9    3   36 1
    10    3   37 1
    11    4   38 1
    12    4   39 1
    13    4   40 1
    14    5   10 ar
    15    5    6 ar
    16    6    7 ar
    17    6   41 1
    18    7    8 ar
    19    7   42 1
    20    8    9 ar
    21    8   11 1
    22    9   10 ar
    23    9   43 1
    24   10   44 1
    25   11   12 1
    26   11   45 1
    27   11   46 1
    28   12   13 1
    29   12   47 1
    30   13   18 ar
    31   13   14 ar
    32   14   15 ar
    33   14   48 1
    34   15   16 ar
    35   15   49 1
    36   16   17 ar
    37   16   31 1
    38   17   18 ar
    39   17   50 1
    40   18   19 1
    41   19   20 1
    42   19   30 1
    43   19   21 1
    44   21   22 2
    45   21   23 am
    46   23   24 2
    47   23   55 1
    48   24   29 ar
    49   24   25 ar
    50   25   26 ar
    51   25   51 1
    52   26   27 ar
    53   26   52 1
    54   27   28 ar
    55   27   53 1
    56   28   29 ar
    57   28   54 1
    58   29   30 2
    59   30   56 1
@<TRIPOS>MOLECULE
ZINC39700699
   39    42     0     0     0
SMALL
USER_CHARGES

@<TRIPOS>ATOM
      1 C1         -0.0184    1.5028    0.0103 C.3       1 <0>        -0.1705
      2 C2          0.0021   -0.0041    0.0020 C.ar      1 <0>         0.1428
      3 C3          0.0053   -0.6722   -1.2301 C.ar      1 <0>        -0.0271
      4 C4          0.0177   -2.0222   -1.3082 C.ar      1 <0>        -0.0869
      5 C5          0.0281   -2.8124   -0.0710 C.ar      1 <0>         0.3313
      6 N1          0.0726   -4.1065    0.1394 N.pl3     1 <0>        -0.4197
      7 C6         -0.0650   -4.3547    1.5646 C.3       1 <0>         0.2591
      8 H1         -1.0479   -4.7774    1.7728 H         1 <0>         0.2151
      9 C7          0.0649   -2.9985    2.2351 C.2       1 <0>        -0.1057
     10 C8          0.0364   -2.0749    1.2179 C.ar      1 <0>         0.1529
     11 C9          0.0222   -0.6616    1.1838 C.ar      1 <0>        -0.1528
     12 N2          0.3024   -2.8818    3.5439 N.2       1 <0>         0.0935
     13 N3          0.9312   -3.8790    4.0889 N.pl3     1 <0>        -0.3458
     14 C10         1.3755   -4.9334    3.3633 C.2       1 <0>         0.5888
     15 N4          0.9731   -5.2061    2.1431 N.2       1 <0>        -0.4969
     16 N5          2.3040   -5.7752    3.9427 N.pl3     1 <0>        -0.5258
     17 N6          2.7912   -6.8781    3.2292 N.2       1 <0>        -0.2455
     18 C11         3.6642   -7.6694    3.7739 C.2       1 <0>         0.1892
     19 C12         4.1769   -8.8302    3.0229 C.ar      1 <0>        -0.0788
     20 C13         3.7295   -9.0781    1.7226 C.ar      1 <0>        -0.0643
     21 C14         4.2129  -10.1655    1.0256 C.ar      1 <0>        -0.1133
     22 C15         5.1388  -11.0110    1.6108 C.ar      1 <0>        -0.0689
     23 C16         5.5871  -10.7722    2.8990 C.ar      1 <0>        -0.0418
     24 C17         5.1162   -9.6837    3.6060 C.ar      1 <0>        -0.0639
     25 Cl1         6.7489  -11.8392    3.6237 Cl        1 <0>        -0.0407
     26 H2          1.0042    1.8801    0.0026 H         1 <0>         0.1423
     27 H3         -0.5455    1.8639   -0.8728 H         1 <0>         0.1191
     28 H4         -0.5286    1.8543    0.9071 H         1 <0>         0.1166
     29 H5         -0.0027   -0.0932   -2.1417 H         1 <0>         0.2038
     30 H6          0.0195   -2.5135   -2.2700 H         1 <0>         0.2063
     31 H7          0.0234   -0.1030    2.1081 H         1 <0>         0.1964
     32 H8          2.6191   -5.6029    4.8438 H         1 <0>         0.4120
     33 H9          4.0150   -7.4776    4.7772 H         1 <0>         0.1416
     34 H10         3.0063   -8.4196    1.2645 H         1 <0>         0.1382
     35 H11         3.8676  -10.3578    0.0205 H         1 <0>         0.1433
     36 H12         5.5134  -11.8614    1.0604 H         1 <0>         0.1464
     37 H13         5.4700   -9.4953    4.6089 H         1 <0>         0.1461
     38 H14         1.0881   -3.8684    5.0461 H         1 <0>         0.4816
     39 H15         0.1795   -4.7862   -0.5443 H         1 <0>         0.4820
@<TRIPOS>BOND
     1    1    2 1
     2    1   26 1
     3    1   27 1
     4    1   28 1
     5    2   11 ar
     6    2    3 ar
     7    3    4 ar
     8    3   29 1
     9    4    5 ar
    10    4   30 1
    11    5   10 ar
    12    5    6 2
    13    6    7 1
    14    6   39 1
    15    7    8 1
    16    7   15 1
    17    7    9 1
    18    9   10 2
    19    9   12 1
    20   10   11 ar
    21   11   31 1
    22   12   13 2
    23   13   14 1
    24   13   38 1
    25   14   15 2
    26   14   16 1
    27   16   17 1
    28   16   32 1
    29   17   18 2
    30   18   19 1
    31   18   33 1
    32   19   24 ar
    33   19   20 ar
    34   20   21 ar
    35   20   34 1
    36   21   22 ar
    37   21   35 1
    38   22   23 ar
    39   22   36 1
    40   23   24 ar
    41   23   25 1
    42   24   37 1
@<TRIPOS>MOLECULE
ZINC63491274
   49    53     0     0     0
SMALL
USER_CHARGES

@<TRIPOS>ATOM
      1 C1         -0.6434    1.4234    0.1131 C.3       1 <0>        -0.1003
      2 C2         -0.2980   -0.0422    0.0514 C.2       1 <0>        -0.2471
      3 C3         -0.4055   -0.7491   -1.1695 C.2       1 <0>         0.4205
      4 O1         -0.7763   -0.1967   -2.1919 O.2       1 <0>        -0.4333
      5 C4         -0.0501   -2.1825   -1.1565 C.ar      1 <0>        -0.2248
      6 C5         -0.1253   -2.9578   -2.3127 C.ar      1 <0>         0.0325
      7 C6          0.2141   -4.2948   -2.2676 C.ar      1 <0>        -0.1515
      8 C7          0.6294   -4.8737   -1.0823 C.ar      1 <0>        -0.0215
      9 C8          0.7114   -4.1155    0.0849 C.ar      1 <0>        -0.1939
     10 C9          0.3693   -2.7552    0.0532 C.ar      1 <0>         0.2225
     11 O2          0.4400   -1.9987    1.1651 O.3       1 <0>        -0.1973
     12 C10         0.1249   -0.6942    1.1676 C.2       1 <0>         0.1845
     13 C11         0.2369    0.0610    2.4315 C.ar      1 <0>        -0.0752
     14 C12        -0.3336   -0.4427    3.6026 C.ar      1 <0>        -0.0784
     15 C13        -0.2252    0.2681    4.7797 C.ar      1 <0>        -0.1229
     16 C14         0.4465    1.4777    4.8020 C.ar      1 <0>        -0.0873
     17 C15         1.0142    1.9827    3.6454 C.ar      1 <0>        -0.1172
     18 C16         0.9188    1.2795    2.4626 C.ar      1 <0>        -0.0773
     19 C17         1.1549   -4.7401    1.3461 C.2       1 <0>         0.5848
     20 O3          1.2251   -4.0755    2.3619 O.2       1 <0>        -0.4662
     21 N1          1.4822   -6.0473    1.3721 N.am      1 <0>        -0.7283
     22 C18         1.9225   -6.6674    2.6242 C.3       1 <0>         0.4825
     23 N2          3.3222   -6.3164    2.8955 N.pl3     1 <0>        -0.4740
     24 C19         4.0032   -7.4252    2.9300 C.ar      1 <0>         0.3351
     25 C20         5.4254   -7.7175    3.1562 C.ar      1 <0>        -0.1355
     26 C21         5.8535   -8.9956    3.1337 C.ar      1 <0>         0.0312
     27 C22         4.9898  -10.0804    2.8997 C.ar      1 <0>         0.0563
     28 C23         3.6690   -9.9236    2.6804 C.ar      1 <0>        -0.1482
     29 C24         3.0890   -8.5735    2.6828 C.ar      1 <0>         0.3472
     30 N3          1.8781   -8.1302    2.5050 N.pl3     1 <0>        -0.4903
     31 H1          0.2631    2.0159   -0.0108 H         1 <0>         0.0794
     32 H2         -1.3469    1.6648   -0.6837 H         1 <0>         0.0839
     33 H3         -1.0962    1.6496    1.0785 H         1 <0>         0.0783
     34 H4         -0.4491   -2.5131   -3.2420 H         1 <0>         0.1625
     35 H5          0.1547   -4.8934   -3.1646 H         1 <0>         0.1565
     36 H6          0.8919   -5.9211   -1.0606 H         1 <0>         0.1369
     37 H7         -0.8587   -1.3863    3.5864 H         1 <0>         0.1254
     38 H8         -0.6658   -0.1202    5.6860 H         1 <0>         0.1324
     39 H9          0.5278    2.0304    5.7262 H         1 <0>         0.1343
     40 H10         1.5367    2.9276    3.6698 H         1 <0>         0.1382
     41 H11         1.3664    1.6725    1.5617 H         1 <0>         0.1354
     42 H12         1.4262   -6.5775    0.5617 H         1 <0>         0.4334
     43 H13         1.2875   -6.3396    3.4472 H         1 <0>         0.2490
     44 H14         6.1232   -6.9137    3.3390 H         1 <0>         0.2088
     45 H15         6.9017   -9.1943    3.3017 H         1 <0>         0.2070
     46 H16         5.4012  -11.0790    2.8951 H         1 <0>         0.2080
     47 H17         3.0413  -10.7846    2.5041 H         1 <0>         0.2101
     48 H18         3.6749   -5.4221    3.0249 H         1 <0>         0.4951
     49 H19         1.0905   -8.6678    2.3268 H         1 <0>         0.4987
@<TRIPOS>BOND
     1    1    2 1
     2    1   31 1
     3    1   32 1
     4    1   33 1
     5    2   12 2
     6    2    3 1
     7    3    4 2
     8    3    5 1
     9    5   10 ar
    10    5    6 ar
    11    6    7 ar
    12    6   34 1
    13    7    8 ar
    14    7   35 1
    15    8    9 ar
    16    8   36 1
    17    9   10 ar
    18    9   19 1
    19   10   11 1
    20   11   12 1
    21   12   13 1
    22   13   18 ar
    23   13   14 ar
    24   14   15 ar
    25   14   37 1
    26   15   16 ar
    27   15   38 1
    28   16   17 ar
    29   16   39 1
    30   17   18 ar
    31   17   40 1
    32   18   41 1
    33   19   20 2
    34   19   21 am
    35   21   22 1
    36   21   42 1
    37   22   30 1
    38   22   23 1
    39   22   43 1
    40   23   24 2
    41   23   48 1
    42   24   29 ar
    43   24   25 ar
    44   25   26 ar
    45   25   44 1
    46   26   27 ar
    47   26   45 1
    48   27   28 ar
    49   27   46 1
    50   28   29 ar
    51   28   47 1
    52   29   30 2
    53   30   49 1
@<TRIPOS>MOLECULE
ZINC64074489
   52    56     0     0     0
SMALL
USER_CHARGES

@<TRIPOS>ATOM
      1 C1         -0.1053    1.2161    0.0485 C.ar      1 <0>        -0.1452
      2 C2          1.0543    2.0027    0.0137 C.ar      1 <0>         0.0934
      3 C3          2.2950    1.4717   -0.0146 C.ar      1 <0>        -0.2211
      4 C4          2.4733    0.0608   -0.0106 C.ar      1 <0>         0.3462
      5 N1          3.5528   -0.6828   -0.0343 N.pl3     1 <0>        -0.6291
      6 C5          3.1497   -2.0934   -0.0156 C.3       1 <0>         0.0713
      7 H1          3.5482   -2.5862    0.8712 H         1 <0>         0.1896
      8 C6          1.6378   -2.0922    0.0238 C.2       1 <0>         0.0472
      9 C7          1.2640   -0.7923    0.0259 C.ar      1 <0>        -0.1435
     10 C8         -0.0481   -0.1351    0.0557 C.ar      1 <0>        -0.0039
     11 C9          3.6453   -2.8003   -1.2787 C.3       1 <0>        -0.0086
     12 N2          5.0974   -2.6168   -1.4048 N.4       1 <0>        -0.5191
     13 C10         5.5732   -3.2956   -2.6175 C.3       1 <0>         0.0526
     14 H2          4.9836   -2.9805   -3.4784 H         1 <0>         0.1646
     15 C11         5.4780   -4.8247   -2.4410 C.3       1 <0>        -0.1457
     16 C12         6.3573   -5.3199   -1.2980 C.3       1 <0>        -0.1324
     17 C13         7.8150   -4.8438   -1.4391 C.3       1 <0>        -0.1333
     18 C14         7.7740   -3.3365   -1.5215 C.3       1 <0>         0.1268
     19 H3          7.2229   -2.9339   -0.6716 H         1 <0>         0.0457
     20 C15         7.0342   -2.9851   -2.8470 C.3       1 <0>        -0.1459
     21 H4          7.4177   -3.6104   -3.6533 H         1 <0>         0.1494
     22 C16         7.4769   -1.5810   -3.0734 C.2       1 <0>         0.0064
     23 N3          8.5805   -1.4093   -2.4226 N.2       1 <0>        -0.1734
     24 N4          9.0009   -2.5806   -1.7181 N.pl3     1 <0>        -0.4993
     25 C17        10.2932   -2.9265   -1.3145 C.ar      1 <0>         0.1459
     26 C18        10.8430   -4.1408   -1.7047 C.ar      1 <0>        -0.1062
     27 C19        12.1209   -4.4795   -1.3045 C.ar      1 <0>        -0.1080
     28 C20        12.8540   -3.6116   -0.5160 C.ar      1 <0>        -0.0812
     29 C21        12.3115   -2.4012   -0.1247 C.ar      1 <0>        -0.1367
     30 C22        11.0348   -2.0527   -0.5256 C.ar      1 <0>         0.0994
     31 F1         10.5068   -0.8679   -0.1480 F         1 <0>        -0.1305
     32 H5         -1.0696    1.7017    0.0747 H         1 <0>         0.1702
     33 H6          0.9508    3.0777    0.0090 H         1 <0>         0.1730
     34 H7          3.1570    2.1219   -0.0409 H         1 <0>         0.1688
     35 H8          0.9882   -2.9547    0.0452 H         1 <0>         0.2245
     36 H9         -0.9544   -0.7219    0.0830 H         1 <0>         0.1749
     37 H10         3.4179   -3.8643   -1.2125 H         1 <0>         0.1807
     38 H11         3.1484   -2.3761   -2.1512 H         1 <0>         0.1611
     39 H12         5.3078   -1.6319   -1.4660 H         1 <0>         0.4230
     40 H13         4.4423   -5.0944   -2.2346 H         1 <0>         0.0986
     41 H14         5.7919   -5.3090   -3.3657 H         1 <0>         0.1259
     42 H15         5.9539   -4.9501   -0.3553 H         1 <0>         0.0602
     43 H16         6.3406   -6.4097   -1.2850 H         1 <0>         0.1098
     44 H17         8.3943   -5.1540   -0.5695 H         1 <0>         0.0981
     45 H18         8.2551   -5.2550   -2.3476 H         1 <0>         0.0968
     46 H19         6.9682   -0.8406   -3.6729 H         1 <0>         0.2099
     47 H20        10.2716   -4.8199   -2.3202 H         1 <0>         0.1330
     48 H21        12.5482   -5.4239   -1.6077 H         1 <0>         0.1427
     49 H22        13.8528   -3.8799   -0.2047 H         1 <0>         0.1453
     50 H23        12.8869   -1.7259    0.4911 H         1 <0>         0.1471
     51 H24         4.4654   -0.3551   -0.0603 H         1 <0>         0.4501
     52 H25         5.5574   -3.0095   -0.5971 H         1 <0>         0.4310
@<TRIPOS>BOND
     1    1   10 ar
     2    1    2 ar
     3    1   32 1
     4    2    3 ar
     5    2   33 1
     6    3    4 ar
     7    3   34 1
     8    4    9 ar
     9    4    5 2
    10    5    6 1
    11    5   51 1
    12    6    7 1
    13    6    8 1
    14    6   11 1
    15    8    9 2
    16    8   35 1
    17    9   10 ar
    18   10   36 1
    19   11   12 1
    20   11   37 1
    21   11   38 1
    22   12   13 1
    23   12   39 1
    24   12   52 1
    25   13   14 1
    26   13   20 1
    27   13   15 1
    28   15   16 1
    29   15   40 1
    30   15   41 1
    31   16   17 1
    32   16   42 1
    33   16   43 1
    34   17   18 1
    35   17   44 1
    36   17   45 1
    37   18   19 1
    38   18   24 1
    39   18   20 1
    40   20   21 1
    41   20   22 1
    42   22   23 2
    43   22   46 1
    44   23   24 1
    45   24   25 1
    46   25   30 ar
    47   25   26 ar
    48   26   27 ar
    49   26   47 1
    50   27   28 ar
    51   27   48 1
    52   28   29 ar
    53   28   49 1
    54   29   30 ar
    55   29   50 1
    56   30   31 1
@<TRIPOS>MOLECULE
ZINC12057767
   55    57     0     0     0
SMALL
USER_CHARGES
(3R,4R)-4-(azepan-1-yl)-1-cinnamyl-piperidin-3-ol
@<TRIPOS>ATOM
      1 C1         12.3120   -3.0611    3.8949 C.ar      1 <0>        -0.0864
      2 C2         12.4724   -2.9641    2.5242 C.ar      1 <0>        -0.1181
      3 C3         11.7373   -2.0451    1.8040 C.ar      1 <0>        -0.0852
      4 C4         10.8303   -1.2128    2.4610 C.ar      1 <0>        -0.1120
      5 C5         10.6771   -1.3121    3.8443 C.ar      1 <0>        -0.0974
      6 C6         11.4147   -2.2386    4.5523 C.ar      1 <0>        -0.1221
      7 C7         10.0395   -0.2260    1.6956 C.2       1 <0>         0.0048
      8 C8          9.1785    0.5633    2.3226 C.2       1 <0>        -0.2749
      9 C9          8.3723    1.5693    1.5423 C.3       1 <0>         0.0442
     10 C10         6.4907    0.0673    1.2893 C.3       1 <0>        -0.0005
     11 C11         5.0395   -0.1764    1.7098 C.3       1 <0>        -0.1741
     12 C12         4.1587    0.9503    1.1629 C.3       1 <0>         0.0262
     13 H1          4.1917    0.9424    0.0734 H         1 <0>         0.1569
     14 C13         4.6798    2.2938    1.6808 C.3       1 <0>         0.0691
     15 H2          4.6092    2.3167    2.7683 H         1 <0>         0.1011
     16 C14         6.1411    2.4651    1.2598 C.3       1 <0>        -0.0363
     17 O1          3.8962    3.3540    1.1294 O.3       1 <0>        -0.5428
     18 C15         2.1571   -0.4100    0.9395 C.3       1 <0>        -0.0023
     19 C16         2.4666   -1.7131    1.6247 C.3       1 <0>        -0.1485
     20 C17         1.3233   -2.0311    2.6111 C.3       1 <0>        -0.1363
     21 C18         1.4322   -1.2632    3.8466 C.3       1 <0>        -0.1321
     22 C19         1.3584    0.2576    3.5960 C.3       1 <0>        -0.1446
     23 C20         2.6969    0.7237    3.0912 C.3       1 <0>        -0.0061
     24 H3         12.8900   -3.7819    4.4541 H         1 <0>         0.1342
     25 H4         13.1747   -3.6088    2.0168 H         1 <0>         0.1351
     26 H5         11.8639   -1.9698    0.7340 H         1 <0>         0.1304
     27 H6          9.9800   -0.6677    4.3593 H         1 <0>         0.1222
     28 H7         11.2944   -2.3190    5.6226 H         1 <0>         0.1318
     29 H8         10.1631   -0.1481    0.6255 H         1 <0>         0.1312
     30 H9          9.0550    0.4853    3.3927 H         1 <0>         0.1386
     31 H10         8.5649    1.4416    0.4771 H         1 <0>         0.1361
     32 H11         8.6575    2.5769    1.8449 H         1 <0>         0.1407
     33 H12         6.5571    0.0694    0.2013 H         1 <0>         0.1444
     34 H13         7.1229   -0.7250    1.6900 H         1 <0>         0.1544
     35 H14         4.9748   -0.1935    2.7977 H         1 <0>         0.1133
     36 H15         4.6991   -1.1314    1.3094 H         1 <0>         0.1488
     37 H16         6.2091    2.4559    0.1720 H         1 <0>         0.1505
     38 H17         6.5195    3.4142    1.6394 H         1 <0>         0.1506
     39 H18         4.1711    4.2359    1.4154 H         1 <0>         0.4213
     40 H19         1.0761   -0.2718    0.9189 H         1 <0>         0.1344
     41 H20         2.5229   -0.4568   -0.0863 H         1 <0>         0.1279
     42 H21         3.4067   -1.6261    2.1695 H         1 <0>         0.0858
     43 H22         2.5420   -2.5081    0.8829 H         1 <0>         0.1163
     44 H23         1.3489   -3.0939    2.8517 H         1 <0>         0.0896
     45 H24         0.3705   -1.8009    2.1343 H         1 <0>         0.0786
     46 H25         0.6207   -1.5513    4.5149 H         1 <0>         0.0910
     47 H26         2.3836   -1.4958    4.3250 H         1 <0>         0.0710
     48 H27         0.5920    0.4692    2.8504 H         1 <0>         0.0905
     49 H28         1.1157    0.7708    4.5265 H         1 <0>         0.1151
     50 H29         2.8871    1.7264    3.4739 H         1 <0>         0.1221
     51 H30         3.4683    0.0531    3.4699 H         1 <0>         0.1280
     52 N1          6.9396    1.3642    1.8394 N.4       1 <0>        -0.3928
     53 H31         6.8078    1.3576    2.8576 H         1 <0>         0.4296
     54 N2          2.7589    0.8026    1.5918 N.4       1 <0>        -0.3985
     55 H32         2.2303    1.6291    1.2890 H         1 <0>         0.4448
@<TRIPOS>BOND
     1    1    6 ar
     2    1    2 ar
     3    1   24 1
     4    2    3 ar
     5    2   25 1
     6    3    4 ar
     7    3   26 1
     8    4    5 ar
     9    4    7 1
    10    5    6 ar
    11    5   27 1
    12    6   28 1
    13    7    8 2
    14    7   29 1
    15    8    9 1
    16    8   30 1
    17    9   31 1
    18    9   32 1
    19    9   52 1
    20   10   11 1
    21   10   33 1
    22   10   34 1
    23   10   52 1
    24   11   12 1
    25   11   35 1
    26   11   36 1
    27   12   13 1
    28   12   14 1
    29   12   54 1
    30   14   15 1
    31   14   16 1
    32   14   17 1
    33   16   37 1
    34   16   38 1
    35   16   52 1
    36   17   39 1
    37   18   19 1
    38   18   40 1
    39   18   41 1
    40   18   54 1
    41   19   20 1
    42   19   42 1
    43   19   43 1
    44   20   21 1
    45   20   44 1
    46   20   45 1
    47   21   22 1
    48   21   46 1
    49   21   47 1
    50   22   23 1
    51   22   48 1
    52   22   49 1
    53   23   50 1
    54   23   51 1
    55   23   54 1
    56   52   53 1
    57   54   55 1
@<TRIPOS>MOLECULE
ZINC37916337
   59    61     0     0     0
SMALL
USER_CHARGES

@<TRIPOS>ATOM
      1 C1          2.9571    1.4942   -3.8852 C.3       1 <0>        -0.1616
      2 C2          2.5259    0.0334   -3.7394 C.3       1 <0>        -0.0823
      3 C3          1.0018   -0.0396   -3.6269 C.3       1 <0>        -0.1561
      4 C4          2.9854   -0.7587   -4.9652 C.3       1 <0>        -0.1511
      5 C5          3.1594   -0.5621   -2.4805 C.3       1 <0>        -0.0957
      6 H1          4.1587   -0.1482   -2.3460 H         1 <0>         0.0983
      7 C6          3.2524   -2.0823   -2.6267 C.3       1 <0>        -0.1169
      8 C7          3.8859   -2.6779   -1.3677 C.3       1 <0>        -0.1327
      9 C8          3.0236   -2.3343   -0.1515 C.3       1 <0>        -0.1188
     10 C9          2.9306   -0.8142   -0.0053 C.3       1 <0>        -0.1386
     11 C10         2.2971   -0.2186   -1.2642 C.3       1 <0>         0.0250
     12 H2          1.2977   -0.6325   -1.3988 H         1 <0>         0.1431
     13 N1          2.2077    1.2410   -1.1239 N.4       1 <0>        -0.3835
     14 C11         3.5594    1.8058   -1.0322 C.3       1 <0>        -0.0323
     15 C12         3.4751    3.3323   -0.9674 C.3       1 <0>        -0.1440
     16 C13         2.6644    3.7414    0.2658 C.3       1 <0>        -0.1484
     17 C14         1.2820    3.0862    0.1961 C.3       1 <0>        -0.1325
     18 H3          0.7471    3.4571   -0.6782 H         1 <0>         0.1159
     19 C15         1.4476    1.5688    0.0882 C.3       1 <0>        -0.0100
     20 C16         0.4911    3.4261    1.4610 C.3       1 <0>         0.0334
     21 H4          1.0467    3.1062    2.3426 H         1 <0>         0.1531
     22 C17        -0.8838    2.7263    1.4244 C.3       1 <0>        -0.1472
     23 C18        -1.8331    3.7888    2.0383 C.3       1 <0>        -0.1436
     24 C19        -1.2198    5.1051    1.4992 C.3       1 <0>        -0.0100
     25 N2          0.2444    4.8784    1.5232 N.4       1 <0>        -0.5143
     26 H5          2.5003    2.0885   -3.0938 H         1 <0>         0.0288
     27 H6          4.0424    1.5619   -3.8100 H         1 <0>         0.0773
     28 H7          2.6358    1.8728   -4.8555 H         1 <0>         0.0862
     29 H8          0.5523    0.2812   -4.5666 H         1 <0>         0.0813
     30 H9          0.7021   -1.0654   -3.4123 H         1 <0>         0.0777
     31 H10         0.6652    0.6132   -2.8215 H         1 <0>         0.0289
     32 H11         4.0712   -0.7066   -5.0453 H         1 <0>         0.0672
     33 H12         2.6782   -1.7993   -4.8613 H         1 <0>         0.0735
     34 H13         2.5341   -0.3344   -5.8620 H         1 <0>         0.0683
     35 H14         2.2531   -2.4962   -2.7612 H         1 <0>         0.0769
     36 H15         3.8668   -2.3271   -3.4932 H         1 <0>         0.0944
     37 H16         3.9522   -3.7609   -1.4719 H         1 <0>         0.0838
     38 H17         4.8853   -2.2640   -1.2332 H         1 <0>         0.0708
     39 H18         2.0243   -2.7482   -0.2860 H         1 <0>         0.0755
     40 H19         3.4749   -2.7586    0.7454 H         1 <0>         0.0871
     41 H20         2.3162   -0.5694    0.8612 H         1 <0>         0.0837
     42 H21         3.9299   -0.4002    0.1292 H         1 <0>         0.0872
     43 H22         4.0491    1.4310   -0.1334 H         1 <0>         0.1369
     44 H23         4.1361    1.5112   -1.9089 H         1 <0>         0.1462
     45 H24         4.4795    3.7497   -0.8975 H         1 <0>         0.1253
     46 H25         2.9857    3.7083   -1.8658 H         1 <0>         0.0929
     47 H26         3.1798    3.4100    1.1672 H         1 <0>         0.1007
     48 H27         2.5533    4.8256    0.2858 H         1 <0>         0.0922
     49 H28         0.4652    1.0992    0.0386 H         1 <0>         0.1392
     50 H29         1.9823    1.1990    0.9630 H         1 <0>         0.1439
     51 H30        -1.1728    2.4980    0.3986 H         1 <0>         0.1015
     52 H31        -0.8723    1.8221    2.0331 H         1 <0>         0.1209
     53 H32        -2.8529    3.6565    1.6770 H         1 <0>         0.1247
     54 H33        -1.7995    3.7596    3.1274 H         1 <0>         0.1060
     55 H34        -1.5593    5.2927    0.4806 H         1 <0>         0.1372
     56 H35        -1.4837    5.9403    2.1480 H         1 <0>         0.1456
     57 H36         0.6342    5.2528    2.3752 H         1 <0>         0.4394
     58 H37         1.7380    1.6271   -1.9291 H         1 <0>         0.4212
     59 H38         0.6719    5.3298    0.7285 H         1 <0>         0.4282
@<TRIPOS>BOND
     1    1    2 1
     2    1   26 1
     3    1   27 1
     4    1   28 1
     5    2    3 1
     6    2    4 1
     7    2    5 1
     8    3   29 1
     9    3   30 1
    10    3   31 1
    11    4   32 1
    12    4   33 1
    13    4   34 1
    14    5    6 1
    15    5   11 1
    16    5    7 1
    17    7    8 1
    18    7   35 1
    19    7   36 1
    20    8    9 1
    21    8   37 1
    22    8   38 1
    23    9   10 1
    24    9   39 1
    25    9   40 1
    26   10   11 1
    27   10   41 1
    28   10   42 1
    29   11   12 1
    30   11   13 1
    31   13   19 1
    32   13   14 1
    33   13   58 1
    34   14   15 1
    35   14   43 1
    36   14   44 1
    37   15   16 1
    38   15   45 1
    39   15   46 1
    40   16   17 1
    41   16   47 1
    42   16   48 1
    43   17   18 1
    44   17   19 1
    45   17   20 1
    46   19   49 1
    47   19   50 1
    48   20   21 1
    49   20   25 1
    50   20   22 1
    51   22   23 1
    52   22   51 1
    53   22   52 1
    54   23   24 1
    55   23   53 1
    56   23   54 1
    57   24   25 1
    58   24   55 1
    59   24   56 1
    60   25   57 1
    61   25   59 1
@<TRIPOS>MOLECULE
ZINC20503772
   46    48     0     0     0
SMALL
USER_CHARGES

@<TRIPOS>ATOM
      1 C1         -0.0225    1.8097    0.0120 C.3       1 <0>        -0.1532
      2 S1          0.0021   -0.0041    0.0020 S.3       1 <0>        -0.0812
      3 C2          0.8767   -0.4266    1.4721 C.ar      1 <0>        -0.0513
      4 C3          1.3495    0.5736    2.3131 C.ar      1 <0>        -0.1370
      5 C4          2.0346    0.2388    3.4643 C.ar      1 <0>        -0.0659
      6 C5          2.2504   -1.0902    3.7808 C.ar      1 <0>        -0.1791
      7 C6          1.7817   -2.0882    2.9460 C.ar      1 <0>        -0.0680
      8 C7          1.0904   -1.7610    1.7963 C.ar      1 <0>        -0.1013
      9 C8          2.9985   -1.4515    5.0381 C.3       1 <0>         0.0476
     10 N1          2.0482   -1.5955    6.1490 N.4       1 <0>        -0.5022
     11 C9          2.7774   -1.9477    7.3746 C.3       1 <0>        -0.0064
     12 C10         1.7877   -2.0976    8.5317 C.3       1 <0>         0.0520
     13 H1          1.1261   -2.9418    8.3373 H         1 <0>         0.1122
     14 C11         2.5567   -2.3405    9.8336 C.3       1 <0>        -0.1412
     15 C12         2.2275   -1.2135   10.8206 C.3       1 <0>        -0.0808
     16 H2          2.7704   -1.3622   11.7540 H         1 <0>         0.0936
     17 C13         0.7162   -1.2187   11.0827 C.3       1 <0>        -0.1522
     18 C14        -0.0170   -1.0169    9.7536 C.3       1 <0>         0.0525
     19 N2          0.9913   -0.8696    8.6576 N.3       1 <0>        -0.5397
     20 C15         1.8545    0.2997    8.8740 C.3       1 <0>         0.0462
     21 C16         2.6265    0.1247   10.1858 C.3       1 <0>        -0.0079
     22 H3          2.3796    0.9397   10.8662 H         1 <0>         0.1039
     23 C17         4.0727    0.1288    9.9116 C.1       1 <0>        -0.1987
     24 C18         5.2262    0.1320    9.6929 C.1       1 <0>        -0.1844
     25 H4          1.0001    2.1870    0.0043 H         1 <0>         0.0895
     26 H5         -0.5497    2.1708   -0.8711 H         1 <0>         0.1192
     27 H6         -0.5327    2.1613    0.9088 H         1 <0>         0.0890
     28 H7          1.1817    1.6116    2.0664 H         1 <0>         0.1350
     29 H8          2.4026    1.0155    4.1182 H         1 <0>         0.1331
     30 H9          1.9523   -3.1249    3.1961 H         1 <0>         0.1368
     31 H10         0.7202   -2.5410    1.1475 H         1 <0>         0.1407
     32 H11         3.5275   -2.3927    4.8883 H         1 <0>         0.1373
     33 H12         3.7156   -0.6650    5.2730 H         1 <0>         0.1340
     34 H13         1.5585   -0.7243    6.2877 H         1 <0>         0.4323
     35 H14         3.3065   -2.8889    7.2248 H         1 <0>         0.1385
     36 H15         3.4946   -1.1612    7.6095 H         1 <0>         0.1302
     37 H16         2.2591   -3.2983   10.2604 H         1 <0>         0.0869
     38 H17         3.6275   -2.3463    9.6297 H         1 <0>         0.0792
     39 H18         0.4246   -2.1739   11.5194 H         1 <0>         0.0798
     40 H19         0.4614   -0.4093   11.7669 H         1 <0>         0.0787
     41 H20        -0.6609   -1.8748    9.5596 H         1 <0>         0.0894
     42 H21        -0.6223   -0.1119    9.8059 H         1 <0>         0.0906
     43 H22         2.5589    0.3897    8.0470 H         1 <0>         0.0746
     44 H23         1.2414    1.1991    8.9295 H         1 <0>         0.1002
     45 H24         6.2578    0.1350    9.4973 H         1 <0>         0.2206
     46 H25         1.3844   -2.3236    5.9316 H         1 <0>         0.4274
@<TRIPOS>BOND
     1    1    2 1
     2    1   25 1
     3    1   26 1
     4    1   27 1
     5    2    3 1
     6    3    8 ar
     7    3    4 ar
     8    4    5 ar
     9    4   28 1
    10    5    6 ar
    11    5   29 1
    12    6    7 ar
    13    6    9 1
    14    7    8 ar
    15    7   30 1
    16    8   31 1
    17    9   10 1
    18    9   32 1
    19    9   33 1
    20   10   11 1
    21   10   34 1
    22   10   46 1
    23   11   12 1
    24   11   35 1
    25   11   36 1
    26   12   13 1
    27   12   19 1
    28   12   14 1
    29   14   15 1
    30   14   37 1
    31   14   38 1
    32   15   16 1
    33   15   21 1
    34   15   17 1
    35   17   18 1
    36   17   39 1
    37   17   40 1
    38   18   19 1
    39   18   41 1
    40   18   42 1
    41   19   20 1
    42   20   21 1
    43   20   43 1
    44   20   44 1
    45   21   22 1
    46   21   23 1
    47   23   24 3
    48   24   45 1
@<TRIPOS>MOLECULE
ZINC52420905
   55    56     0     0     0
SMALL
USER_CHARGES

@<TRIPOS>ATOM
      1 C1         -0.0537   -6.4217    0.3340 C.3       1 <0>        -0.1534
      2 C2         -0.0038   -6.1130    1.8317 C.3       1 <0>        -0.1086
      3 H1          0.7120   -6.7769    2.3166 H         1 <0>         0.0946
      4 C3         -1.3918   -6.3231    2.4437 C.3       1 <0>        -0.1336
      5 C4         -1.3496   -5.9366    3.9249 C.3       1 <0>        -0.1096
      6 H2         -0.6616   -6.5963    4.4537 H         1 <0>         0.0960
      7 C5         -0.8714   -4.4889    4.0553 C.3       1 <0>        -0.0081
      8 N1          0.4709   -4.3592    3.4759 N.4       1 <0>        -0.3822
      9 C6          0.4256   -4.6591    2.0397 C.3       1 <0>        -0.0195
     10 C7          0.9572   -2.9871    3.6729 C.3       1 <0>         0.0302
     11 C8          2.3946   -2.8950    3.2297 C.ar      1 <0>        -0.1206
     12 C9          3.0954   -4.0441    2.9134 C.ar      1 <0>        -0.1306
     13 C10         4.4137   -3.9597    2.5070 C.ar      1 <0>        -0.0631
     14 C11         5.0315   -2.7261    2.4162 C.ar      1 <0>        -0.0873
     15 C12         4.3307   -1.5774    2.7316 C.ar      1 <0>        -0.0675
     16 C13         3.0106   -1.6615    3.1340 C.ar      1 <0>        -0.1329
     17 C14         2.2449   -0.4085    3.4728 C.3       1 <0>         0.0248
     18 N2          2.1317   -0.2833    4.9321 N.4       1 <0>        -0.5057
     19 C15         1.3646    0.9253    5.2618 C.3       1 <0>         0.0530
     20 C16        -0.0149    0.8489    4.6044 C.3       1 <0>        -0.1800
     21 C17         1.2012    1.0275    6.7796 C.3       1 <0>        -0.1795
     22 C18         2.1083    2.1584    4.7448 C.3       1 <0>        -0.1812
     23 C19        -2.7496   -6.0694    4.5277 C.3       1 <0>        -0.1532
     24 H3          0.9341   -6.2705   -0.1012 H         1 <0>         0.0692
     25 H4         -0.3612   -7.4570    0.1865 H         1 <0>         0.0830
     26 H5         -0.7696   -5.7576   -0.1502 H         1 <0>         0.0692
     27 H6         -2.1176   -5.6974    1.9243 H         1 <0>         0.0857
     28 H7         -1.6775   -7.3706    2.3483 H         1 <0>         0.1006
     29 H8         -1.5602   -3.8302    3.5265 H         1 <0>         0.1332
     30 H9         -0.8404   -4.2105    5.1087 H         1 <0>         0.1317
     31 H10         1.4136   -4.5068    1.6052 H         1 <0>         0.1365
     32 H11        -0.2902   -3.9962    1.5537 H         1 <0>         0.1338
     33 H12         0.3507   -2.2987    3.0843 H         1 <0>         0.1448
     34 H13         0.8848   -2.7240    4.7282 H         1 <0>         0.1277
     35 H14         2.6128   -5.0077    2.9843 H         1 <0>         0.1296
     36 H15         4.9614   -4.8573    2.2606 H         1 <0>         0.1504
     37 H16         6.0619   -2.6602    2.0993 H         1 <0>         0.1517
     38 H17         4.8134   -0.6138    2.6610 H         1 <0>         0.1489
     39 H18         2.7715    0.4583    3.0735 H         1 <0>         0.1541
     40 H19         1.2484   -0.4620    3.0344 H         1 <0>         0.1414
     41 H20         1.6589   -1.0935    5.3035 H         1 <0>         0.4119
     42 H21        -0.4966   -0.0896    4.8787 H         1 <0>         0.0752
     43 H22        -0.6265    1.6844    4.9450 H         1 <0>         0.1139
     44 H23         0.0957    0.8975    3.5211 H         1 <0>         0.0842
     45 H24         2.1839    1.0819    7.2479 H         1 <0>         0.0862
     46 H25         0.6320    1.9242    7.0242 H         1 <0>         0.1130
     47 H26         0.6713    0.1490    7.1479 H         1 <0>         0.0803
     48 H27         2.2247    2.0856    3.6634 H         1 <0>         0.0830
     49 H28         1.5391    3.0552    4.9894 H         1 <0>         0.1122
     50 H29         3.0911    2.2128    5.2131 H         1 <0>         0.0868
     51 H30        -3.0905   -7.1002    4.4310 H         1 <0>         0.0829
     52 H31        -2.7189   -5.7943    5.5819 H         1 <0>         0.0695
     53 H32        -3.4368   -5.4084    3.9995 H         1 <0>         0.0690
     54 H33         1.0973   -5.0047    3.9330 H         1 <0>         0.4253
     55 H34         3.0538   -0.2171    5.3365 H         1 <0>         0.4336
@<TRIPOS>BOND
     1    1    2 1
     2    1   24 1
     3    1   25 1
     4    1   26 1
     5    2    3 1
     6    2    9 1
     7    2    4 1
     8    4    5 1
     9    4   27 1
    10    4   28 1
    11    5    6 1
    12    5    7 1
    13    5   23 1
    14    7    8 1
    15    7   29 1
    16    7   30 1
    17    8    9 1
    18    8   10 1
    19    8   54 1
    20    9   31 1
    21    9   32 1
    22   10   11 1
    23   10   33 1
    24   10   34 1
    25   11   16 ar
    26   11   12 ar
    27   12   13 ar
    28   12   35 1
    29   13   14 ar
    30   13   36 1
    31   14   15 ar
    32   14   37 1
    33   15   16 ar
    34   15   38 1
    35   16   17 1
    36   17   18 1
    37   17   39 1
    38   17   40 1
    39   18   19 1
    40   18   41 1
    41   18   55 1
    42   19   20 1
    43   19   21 1
    44   19   22 1
    45   20   42 1
    46   20   43 1
    47   20   44 1
    48   21   45 1
    49   21   46 1
    50   21   47 1
    51   22   48 1
    52   22   49 1
    53   22   50 1
    54   23   51 1
    55   23   52 1
    56   23   53 1
@<TRIPOS>MOLECULE
ZINC43907672
   58    60     0     0     0
SMALL
USER_CHARGES

@<TRIPOS>ATOM
      1 C1         -0.0187    1.5258    0.0104 C.3       1 <0>        -0.1552
      2 C2          0.0021   -0.0041    0.0020 C.3       1 <0>        -0.0928
      3 H1          0.5123   -0.3556   -0.8948 H         1 <0>         0.0810
      4 C3         -1.4333   -0.5336    0.0129 C.3       1 <0>        -0.1163
      5 C4         -1.4126   -2.0635    0.0045 C.3       1 <0>        -0.1422
      6 C5         -0.6726   -2.5703    1.2440 C.3       1 <0>         0.0311
      7 H2         -1.1828   -2.2188    2.1408 H         1 <0>         0.1381
      8 C6          0.7628   -2.0407    1.2331 C.3       1 <0>         0.0629
      9 H3          1.2730   -2.3923    0.3363 H         1 <0>         0.1161
     10 C7          0.7421   -0.5109    1.2415 C.3       1 <0>        -0.1450
     11 N1          1.4733   -2.5274    2.4232 N.3       1 <0>        -0.5510
     12 C8          0.8236   -2.0567    3.6532 C.3       1 <0>         0.0371
     13 C9          1.4999   -2.6985    4.8667 C.3       1 <0>        -0.1391
     14 C10         2.9843   -2.3229    4.8755 C.3       1 <0>         0.0223
     15 C11         3.6265   -2.7813    3.5633 C.3       1 <0>        -0.1395
     16 C12         2.8885   -2.1371    2.3875 C.3       1 <0>         0.0559
     17 N2          3.6512   -2.9836    6.0055 N.4       1 <0>        -0.3792
     18 C13         3.0229   -2.5551    7.2609 C.3       1 <0>        -0.0112
     19 C14         3.6598   -3.3015    8.4351 C.3       1 <0>        -0.1456
     20 C15         5.1582   -2.9886    8.4795 C.3       1 <0>        -0.1413
     21 C16         5.7895   -3.3710    7.1377 C.3       1 <0>        -0.1457
     22 C17         5.0737   -2.6219    6.0116 C.3       1 <0>        -0.0114
     23 N3         -0.6526   -4.0392    1.2359 N.4       1 <0>        -0.5029
     24 C18        -2.0244   -4.5482    1.3670 C.3       1 <0>        -0.0535
     25 H4          1.0039    1.9031    0.0027 H         1 <0>         0.0614
     26 H5         -0.5459    1.8868   -0.8726 H         1 <0>         0.0675
     27 H6         -0.5289    1.8773    0.9072 H         1 <0>         0.0586
     28 H7         -1.9435   -0.1821    0.9097 H         1 <0>         0.0753
     29 H8         -1.9605   -0.1726   -0.8702 H         1 <0>         0.0917
     30 H9         -2.4352   -2.4408    0.0122 H         1 <0>         0.0959
     31 H10        -0.9024   -2.4150   -0.8923 H         1 <0>         0.0921
     32 H11         1.7647   -0.1336    1.2338 H         1 <0>         0.0860
     33 H12         0.2319   -0.1594    2.1383 H         1 <0>         0.0774
     34 H13         0.9128   -0.9723    3.7189 H         1 <0>         0.0670
     35 H14        -0.2304   -2.3338    3.6360 H         1 <0>         0.0916
     36 H15         1.0276   -2.3369    5.7801 H         1 <0>         0.1003
     37 H16         1.3991   -3.7822    4.8087 H         1 <0>         0.0954
     38 H17         3.0860   -1.2420    4.9727 H         1 <0>         0.1361
     39 H18         4.6736   -2.4789    3.5454 H         1 <0>         0.1013
     40 H19         3.5592   -3.8664    3.4847 H         1 <0>         0.0973
     41 H20         3.3343   -2.4727    1.4511 H         1 <0>         0.1043
     42 H21         2.9680   -1.0524    2.4592 H         1 <0>         0.0626
     43 H22         3.1674   -1.4826    7.3915 H         1 <0>         0.1289
     44 H23         1.9560   -2.7756    7.2266 H         1 <0>         0.1293
     45 H24         3.1932   -2.9807    9.3665 H         1 <0>         0.1144
     46 H25         3.5157   -4.3742    8.3057 H         1 <0>         0.0878
     47 H26         5.3029   -1.9234    8.6600 H         1 <0>         0.0830
     48 H27         5.6268   -3.5620    9.2794 H         1 <0>         0.0976
     49 H28         6.8452   -3.0997    7.1417 H         1 <0>         0.1150
     50 H29         5.6896   -4.4451    6.9814 H         1 <0>         0.0881
     51 H30         5.5209   -2.8918    5.0548 H         1 <0>         0.1312
     52 H31         5.1745   -1.5480    6.1687 H         1 <0>         0.1291
     53 H32        -0.2543   -4.3654    0.3681 H         1 <0>         0.4296
     54 H33        -2.4547   -4.1958    2.3044 H         1 <0>         0.1221
     55 H34        -2.6267   -4.1884    0.5328 H         1 <0>         0.1275
     56 H35        -2.0096   -5.6381    1.3610 H         1 <0>         0.1300
     57 H36         3.5599   -3.9839    5.9104 H         1 <0>         0.4205
     58 H37        -0.0951   -4.3722    2.0081 H         1 <0>         0.4315
@<TRIPOS>BOND
     1    1    2 1
     2    1   25 1
     3    1   26 1
     4    1   27 1
     5    2    3 1
     6    2   10 1
     7    2    4 1
     8    4    5 1
     9    4   28 1
    10    4   29 1
    11    5    6 1
    12    5   30 1
    13    5   31 1
    14    6    7 1
    15    6    8 1
    16    6   23 1
    17    8    9 1
    18    8   10 1
    19    8   11 1
    20   10   32 1
    21   10   33 1
    22   11   16 1
    23   11   12 1
    24   12   13 1
    25   12   34 1
    26   12   35 1
    27   13   14 1
    28   13   36 1
    29   13   37 1
    30   14   15 1
    31   14   17 1
    32   14   38 1
    33   15   16 1
    34   15   39 1
    35   15   40 1
    36   16   41 1
    37   16   42 1
    38   17   22 1
    39   17   18 1
    40   17   57 1
    41   18   19 1
    42   18   43 1
    43   18   44 1
    44   19   20 1
    45   19   45 1
    46   19   46 1
    47   20   21 1
    48   20   47 1
    49   20   48 1
    50   21   22 1
    51   21   49 1
    52   21   50 1
    53   22   51 1
    54   22   52 1
    55   23   24 1
    56   23   53 1
    57   23   58 1
    58   24   54 1
    59   24   55 1
    60   24   56 1
@<TRIPOS>MOLECULE
ZINC00279944
   41    42     0     0     0
SMALL
USER_CHARGES
(3S)-1-[(1S,3S)-3-methylcyclohexyl]piperidine-3-carboxamide
@<TRIPOS>ATOM
      1 C1          7.3795   -0.2700    0.8652 C.3       1 <0>        -0.1619
      2 C2          7.3611    0.7305   -0.2922 C.3       1 <0>        -0.0861
      3 H1          8.2824    1.3129   -0.2836 H         1 <0>         0.0916
      4 C3          7.2476   -0.0250   -1.6178 C.3       1 <0>        -0.1261
      5 C4          5.9544   -0.8425   -1.6297 C.3       1 <0>        -0.1195
      6 C5          4.7563    0.0961   -1.4735 C.3       1 <0>        -0.1425
      7 C6          4.8698    0.8516   -0.1479 C.3       1 <0>         0.0276
      8 H2          4.8829    0.1388    0.6766 H         1 <0>         0.1411
      9 C7          6.1630    1.6691   -0.1359 C.3       1 <0>        -0.1365
     10 C8          3.8418    2.5641    1.2200 C.3       1 <0>        -0.0110
     11 C9          2.7060    3.5886    1.2683 C.3       1 <0>        -0.1428
     12 C10         1.3622    2.8547    1.2544 C.3       1 <0>        -0.1311
     13 C11         1.2803    1.9798    0.0005 C.3       1 <0>        -0.1333
     14 H3          1.3222    2.6111   -0.8871 H         1 <0>         0.1215
     15 C12         2.4575    1.0019   -0.0111 C.3       1 <0>         0.0112
     16 C13        -0.0144    1.2086    0.0087 C.2       1 <0>         0.5281
     17 O1          0.0021   -0.0041    0.0020 O.2       1 <0>        -0.5318
     18 N1         -1.1906    1.8666    0.0178 N.am      1 <0>        -0.8424
     19 H4          8.2331   -0.9387    0.7539 H         1 <0>         0.0692
     20 H5          7.4604    0.2682    1.8096 H         1 <0>         0.0605
     21 H6          6.4582   -0.8525    0.8566 H         1 <0>         0.0571
     22 H7          8.1012   -0.6937   -1.7291 H         1 <0>         0.0796
     23 H8          7.2345    0.6878   -2.4423 H         1 <0>         0.0704
     24 H9          5.9675   -1.5553   -0.8052 H         1 <0>         0.0777
     25 H10         5.8736   -1.3808   -2.5741 H         1 <0>         0.0846
     26 H11         3.8349   -0.4863   -1.4820 H         1 <0>         0.0886
     27 H12         4.7432    0.8089   -2.2980 H         1 <0>         0.0858
     28 H13         6.1499    2.3819   -0.9604 H         1 <0>         0.0865
     29 H14         6.2438    2.2073    0.8085 H         1 <0>         0.0881
     30 H15         4.7998    3.0839    1.2154 H         1 <0>         0.1343
     31 H16         3.7842    1.9165    2.0949 H         1 <0>         0.1315
     32 H17         2.7710    4.2452    0.4007 H         1 <0>         0.0911
     33 H18         2.7878    4.1808    2.1798 H         1 <0>         0.1183
     34 H19         0.5501    3.5817    1.2450 H         1 <0>         0.0995
     35 H20         1.2805    2.2275    2.1421 H         1 <0>         0.0900
     36 H21         2.4065    0.3618    0.8697 H         1 <0>         0.1390
     37 H22         2.4101    0.3871   -0.9099 H         1 <0>         0.1389
     38 H23        -2.0240    1.3702    0.0191 H         1 <0>         0.4153
     39 H24        -1.2037    2.8365    0.0232 H         1 <0>         0.4062
     40 N2          3.7201    1.7710   -0.0216 N.4       1 <0>        -0.3909
     41 H25         3.7143    2.4098   -0.8255 H         1 <0>         0.4228
@<TRIPOS>BOND
     1    1    2 1
     2    1   19 1
     3    1   20 1
     4    1   21 1
     5    2    3 1
     6    2    9 1
     7    2    4 1
     8    4    5 1
     9    4   22 1
    10    4   23 1
    11    5    6 1
    12    5   24 1
    13    5   25 1
    14    6    7 1
    15    6   26 1
    16    6   27 1
    17    7    8 1
    18    7    9 1
    19    7   40 1
    20    9   28 1
    21    9   29 1
    22   10   11 1
    23   10   30 1
    24   10   31 1
    25   10   40 1
    26   11   12 1
    27   11   32 1
    28   11   33 1
    29   12   13 1
    30   12   34 1
    31   12   35 1
    32   13   14 1
    33   13   15 1
    34   13   16 1
    35   15   36 1
    36   15   37 1
    37   15   40 1
    38   16   17 2
    39   16   18 am
    40   18   38 1
    41   18   39 1
    42   40   41 1
@<TRIPOS>MOLECULE
ZINC36874659
   40    41     0     0     0
SMALL
USER_CHARGES

@<TRIPOS>ATOM
      1 C1         -0.0959    1.4386    0.0044 C.3       1 <0>        -0.1598
      2 C2         -0.1222   -0.0894   -0.0684 C.3       1 <0>        -0.1208
      3 C3          0.6797   -0.5559   -1.2851 C.3       1 <0>        -0.0943
      4 H1          1.6863   -0.1402   -1.2379 H         1 <0>         0.0865
      5 C4         -0.0100   -0.0777   -2.5644 C.3       1 <0>        -0.1346
      6 C5          0.7919   -0.5442   -3.7810 C.3       1 <0>        -0.1428
      7 C6          0.8707   -2.0721   -3.7846 C.3       1 <0>         0.0380
      8 H2          1.4420   -2.4044   -4.6514 H         1 <0>         0.1418
      9 C7          1.5605   -2.5503   -2.5053 C.3       1 <0>         0.0582
     10 H3          2.5670   -2.1347   -2.4581 H         1 <0>         0.0913
     11 C8          0.7585   -2.0838   -1.2887 C.3       1 <0>        -0.1246
     12 N1          1.6361   -4.0173   -2.5088 N.3       1 <0>        -0.5493
     13 C9          2.2281   -4.5173   -1.2595 C.3       1 <0>         0.0148
     14 C10         2.2330   -6.0481   -1.2802 C.3       1 <0>         0.0604
     15 O1          2.9434   -6.5019   -2.4355 O.3       1 <0>        -0.3755
     16 C11         2.3934   -6.0342   -3.6701 C.3       1 <0>         0.0618
     17 C12         2.3901   -4.5032   -3.6736 C.3       1 <0>         0.0009
     18 N2         -0.4858   -2.6323   -3.8482 N.4       1 <0>        -0.6313
     19 H4          0.9351    1.7803    0.0961 H         1 <0>         0.0580
     20 H5         -0.5369    1.8532   -0.9021 H         1 <0>         0.0566
     21 H6         -0.6672    1.7709    0.8712 H         1 <0>         0.0616
     22 H7          0.3188   -0.5040    0.8381 H         1 <0>         0.0701
     23 H8         -1.1532   -0.4311   -0.1601 H         1 <0>         0.0642
     24 H9         -1.0165   -0.4933   -2.6116 H         1 <0>         0.0607
     25 H10        -0.0661    1.0108   -2.5618 H         1 <0>         0.0972
     26 H11         0.3006   -0.2035   -4.6924 H         1 <0>         0.0956
     27 H12         1.7985   -0.1286   -3.7338 H         1 <0>         0.1121
     28 H13         1.2499   -2.4245   -0.3773 H         1 <0>         0.0941
     29 H14        -0.2480   -2.4994   -1.3359 H         1 <0>         0.0688
     30 H15         3.2509   -4.1512   -1.1693 H         1 <0>         0.0572
     31 H16         1.6393   -4.1667   -0.4118 H         1 <0>         0.0984
     32 H17         2.7228   -6.4227   -0.3814 H         1 <0>         0.1078
     33 H18         1.2072   -6.4149   -1.3163 H         1 <0>         0.0634
     34 H19         2.9992   -6.3988   -4.4997 H         1 <0>         0.1064
     35 H20         1.3723   -6.4006   -3.7757 H         1 <0>         0.0613
     36 H21         1.9196   -4.1423   -4.5881 H         1 <0>         0.0824
     37 H22         3.4155   -4.1370   -3.6220 H         1 <0>         0.0608
     38 H23        -0.9592   -2.2751   -4.6646 H         1 <0>         0.4331
     39 H24        -0.4320   -3.6383   -3.9038 H         1 <0>         0.4392
     40 H25        -0.9979   -2.3681   -3.0199 H         1 <0>         0.4304
@<TRIPOS>BOND
     1    1    2 1
     2    1   19 1
     3    1   20 1
     4    1   21 1
     5    2    3 1
     6    2   22 1
     7    2   23 1
     8    3    4 1
     9    3   11 1
    10    3    5 1
    11    5    6 1
    12    5   24 1
    13    5   25 1
    14    6    7 1
    15    6   26 1
    16    6   27 1
    17    7    8 1
    18    7    9 1
    19    7   18 1
    20    9   10 1
    21    9   11 1
    22    9   12 1
    23   11   28 1
    24   11   29 1
    25   12   17 1
    26   12   13 1
    27   13   14 1
    28   13   30 1
    29   13   31 1
    30   14   15 1
    31   14   32 1
    32   14   33 1
    33   15   16 1
    34   16   17 1
    35   16   34 1
    36   16   35 1
    37   17   36 1
    38   17   37 1
    39   18   38 1
    40   18   39 1
    41   18   40 1
@<TRIPOS>MOLECULE
ZINC40729114
   37    38     0     0     0
SMALL
USER_CHARGES

@<TRIPOS>ATOM
      1 C1         -0.0184    1.5028    0.0103 C.3       1 <0>        -0.0793
      2 C2          0.0021   -0.0041    0.0020 C.2       1 <0>        -0.2258
      3 C3          0.0086   -0.8207   -1.1335 C.2       1 <0>         0.0883
      4 N1          0.0276   -2.0683   -0.7396 N.2       1 <0>        -0.2921
      5 N2          0.0338   -2.0849    0.6612 N.pl3     1 <0>        -0.3790
      6 C4          0.0233   -0.8060    1.0917 C.2       1 <0>         0.0768
      7 C5          0.0302   -0.3522    2.5288 C.3       1 <0>        -0.0937
      8 C6          0.0540   -3.2796    1.5088 C.3       1 <0>         0.1741
      9 H1          0.0416   -2.9915    2.5600 H         1 <0>         0.1098
     10 C7         -1.1626   -4.1734    1.1914 C.3       1 <0>        -0.1333
     11 C8         -0.6172   -5.2122    0.1802 C.3       1 <0>        -0.1198
     12 C9          0.8087   -5.4943    0.7155 C.3       1 <0>        -0.1353
     13 C10         1.3080   -4.1188    1.2071 C.3       1 <0>        -0.1343
     14 H2          1.9016   -3.6371    0.4300 H         1 <0>         0.1103
     15 C11         2.1441   -4.2870    2.4774 C.3       1 <0>        -0.0038
     16 N3          3.3946   -4.9858    2.1516 N.4       1 <0>        -0.6359
     17 C12        -0.0042   -0.3458   -2.5636 C.3       1 <0>        -0.0793
     18 H3          1.0042    1.8801    0.0026 H         1 <0>         0.0634
     19 H4         -0.5455    1.8639   -0.8728 H         1 <0>         0.0679
     20 H5         -0.5286    1.8543    0.9071 H         1 <0>         0.0627
     21 H6         -0.9956   -0.2576    2.8849 H         1 <0>         0.0840
     22 H7          0.5604   -1.0840    3.1383 H         1 <0>         0.0626
     23 H8          0.5310    0.6131    2.6026 H         1 <0>         0.0902
     24 H9         -1.5171   -4.6699    2.0946 H         1 <0>         0.0876
     25 H10        -1.9611   -3.5846    0.7401 H         1 <0>         0.0853
     26 H11        -1.2215   -6.1192    0.1944 H         1 <0>         0.0807
     27 H12        -0.5763   -4.7896   -0.8236 H         1 <0>         0.0858
     28 H13         0.7725   -6.2041    1.5419 H         1 <0>         0.0780
     29 H14         1.4487   -5.8694   -0.0831 H         1 <0>         0.0812
     30 H15         2.3739   -3.3062    2.8937 H         1 <0>         0.1343
     31 H16         1.5823   -4.8692    3.2077 H         1 <0>         0.1402
     32 H17         3.1819   -5.8937    1.7661 H         1 <0>         0.4359
     33 H18         3.9147   -4.4468    1.4755 H         1 <0>         0.4367
     34 H19         1.0203   -0.2170   -2.9128 H         1 <0>         0.0791
     35 H20        -0.5105   -1.0829   -3.1868 H         1 <0>         0.0748
     36 H21        -0.5315    0.6061   -2.6256 H         1 <0>         0.0816
     37 H22         3.9460   -5.0967    2.9892 H         1 <0>         0.4402
@<TRIPOS>BOND
     1    1    2 1
     2    1   18 1
     3    1   19 1
     4    1   20 1
     5    2    6 2
     6    2    3 1
     7    3    4 2
     8    3   17 1
     9    4    5 1
    10    5    6 1
    11    5    8 1
    12    6    7 1
    13    7   21 1
    14    7   22 1
    15    7   23 1
    16    8    9 1
    17    8   13 1
    18    8   10 1
    19   10   11 1
    20   10   24 1
    21   10   25 1
    22   11   12 1
    23   11   26 1
    24   11   27 1
    25   12   13 1
    26   12   28 1
    27   12   29 1
    28   13   14 1
    29   13   15 1
    30   15   16 1
    31   15   30 1
    32   15   31 1
    33   16   32 1
    34   16   33 1
    35   16   37 1
    36   17   34 1
    37   17   35 1
    38   17   36 1
@<TRIPOS>MOLECULE
ZINC51732850
   40    40     0     0     0
SMALL
USER_CHARGES

@<TRIPOS>ATOM
      1 C1          0.4176    1.8885    1.0165 C.3       1 <0>        -0.1511
      2 C2          0.2726    0.4117    0.6436 C.3       1 <0>        -0.0958
      3 H1          0.7244    0.2377   -0.3330 H         1 <0>         0.0778
      4 C3         -1.2116    0.0422    0.5920 C.3       1 <0>        -0.1349
      5 C4         -1.3539   -1.4277    0.1847 C.3       1 <0>         0.0888
      6 N1         -0.5584   -2.2524    1.1044 N.am      1 <0>        -0.5794
      7 C5          0.8611   -1.9262    1.2977 C.3       1 <0>         0.1402
      8 H2          1.4058   -2.1006    0.3698 H         1 <0>         0.0865
      9 C6          0.9782   -0.4507    1.6927 C.3       1 <0>        -0.1286
     10 C7          1.4428   -2.8048    2.4069 C.3       1 <0>        -0.1443
     11 C8         -1.1202   -3.2882    1.7586 C.2       1 <0>         0.5016
     12 O1         -0.4323   -4.0233    2.4348 O.2       1 <0>        -0.5129
     13 C9         -2.6032   -3.5330    1.6497 C.3       1 <0>        -0.0004
     14 H3         -3.1122   -2.5925    1.4390 H         1 <0>         0.1606
     15 C10        -2.8746   -4.5248    0.5168 C.3       1 <0>        -0.1064
     16 C11        -4.3681   -4.8542    0.4741 C.3       1 <0>        -0.1713
     17 C12        -2.4508   -3.9048   -0.8162 C.3       1 <0>        -0.1639
     18 N2         -3.1022   -4.0870    2.9155 N.4       1 <0>        -0.6221
     19 H4          1.4746    2.1520    1.0528 H         1 <0>         0.0616
     20 H5         -0.0845    2.5029    0.2691 H         1 <0>         0.0607
     21 H6         -0.0341    2.0626    1.9931 H         1 <0>         0.0558
     22 H7         -1.6583    0.1922    1.5748 H         1 <0>         0.0694
     23 H8         -1.7183    0.6728   -0.1386 H         1 <0>         0.0875
     24 H9         -2.4015   -1.7231    0.2422 H         1 <0>         0.0877
     25 H10        -0.9898   -1.5615   -0.8340 H         1 <0>         0.0912
     26 H11         2.0304   -0.1709    1.7457 H         1 <0>         0.0865
     27 H12         0.5107   -0.2959    2.6651 H         1 <0>         0.0697
     28 H13         1.4688   -3.8421    2.0728 H         1 <0>         0.0784
     29 H14         2.4545   -2.4729    2.6405 H         1 <0>         0.0604
     30 H15         0.8197   -2.7256    3.2977 H         1 <0>         0.0636
     31 H16        -2.3058   -5.4384    0.6896 H         1 <0>         0.1057
     32 H17        -4.9369   -3.9406    0.3013 H         1 <0>         0.0767
     33 H18        -4.5615   -5.5607   -0.3330 H         1 <0>         0.0928
     34 H19        -4.6700   -5.2959    1.4238 H         1 <0>         0.0559
     35 H20        -1.3743   -3.7339   -0.8116 H         1 <0>         0.0705
     36 H21        -2.7076   -4.5827   -1.6302 H         1 <0>         0.0863
     37 H22        -2.9687   -2.9560   -0.9566 H         1 <0>         0.0737
     38 H23        -2.9233   -3.4329    3.6626 H         1 <0>         0.4387
     39 H24        -4.0952   -4.2509    2.8426 H         1 <0>         0.4404
     40 H25        -2.6311   -4.9576    3.1105 H         1 <0>         0.4424
@<TRIPOS>BOND
     1    1    2 1
     2    1   19 1
     3    1   20 1
     4    1   21 1
     5    2    3 1
     6    2    9 1
     7    2    4 1
     8    4    5 1
     9    4   22 1
    10    4   23 1
    11    5    6 1
    12    5   24 1
    13    5   25 1
    14    6    7 1
    15    6   11 am
    16    7    8 1
    17    7    9 1
    18    7   10 1
    19    9   26 1
    20    9   27 1
    21   10   28 1
    22   10   29 1
    23   10   30 1
    24   11   12 2
    25   11   13 1
    26   13   14 1
    27   13   15 1
    28   13   18 1
    29   15   16 1
    30   15   17 1
    31   15   31 1
    32   16   32 1
    33   16   33 1
    34   16   34 1
    35   17   35 1
    36   17   36 1
    37   17   37 1
    38   18   38 1
    39   18   39 1
    40   18   40 1
@<TRIPOS>MOLECULE
ZINC55136468
   41    42     0     0     0
SMALL
USER_CHARGES

@<TRIPOS>ATOM
      1 C1         -0.0187    1.5258    0.0104 C.3       1 <0>        -0.1455
      2 C2          0.0021   -0.0041    0.0020 C.3       1 <0>        -0.1053
      3 H1         -1.0126   -0.4021   -0.0029 H         1 <0>         0.0876
      4 C3          0.8061   -0.5355   -1.2139 C.3       1 <0>        -0.1319
      5 C4          1.2786   -1.9164   -0.6948 C.3       1 <0>         0.0964
      6 N1          1.5752   -1.7014    0.7332 N.am      1 <0>        -0.6186
      7 C5          0.7953   -0.5460    1.2098 C.3       1 <0>         0.1085
      8 C6          2.4173   -2.4420    1.4807 C.2       1 <0>         0.5252
      9 O1          2.5852   -2.1731    2.6514 O.2       1 <0>        -0.5357
     10 C7          3.1504   -3.6042    0.8620 C.3       1 <0>        -0.1345
     11 C8          4.0341   -4.2705    1.9183 C.3       1 <0>        -0.0655
     12 H2          3.4252   -4.5490    2.7784 H         1 <0>         0.0914
     13 C9          5.1250   -3.2932    2.3608 C.3       1 <0>        -0.1323
     14 C10         6.0087   -3.9595    3.4172 C.3       1 <0>        -0.1155
     15 C11         6.6564   -5.2123    2.8239 C.3       1 <0>        -0.1423
     16 C12         5.5656   -6.1896    2.3814 C.3       1 <0>         0.0273
     17 H3          4.9566   -6.4680    3.2414 H         1 <0>         0.1428
     18 C13         4.6818   -5.5233    1.3250 C.3       1 <0>        -0.1399
     19 N2          6.1875   -7.3924    1.8117 N.4       1 <0>        -0.6369
     20 H4          1.0039    1.9031    0.0027 H         1 <0>         0.0587
     21 H5         -0.5459    1.8868   -0.8726 H         1 <0>         0.0649
     22 H6         -0.5289    1.8773    0.9072 H         1 <0>         0.0620
     23 H7          0.1648   -0.6454   -2.0884 H         1 <0>         0.0892
     24 H8          1.6558    0.1111   -1.4332 H         1 <0>         0.0799
     25 H9          0.4868   -2.6564   -0.8106 H         1 <0>         0.0733
     26 H10         2.1764   -2.2341   -1.2250 H         1 <0>         0.0769
     27 H11         1.4679    0.2242    1.5873 H         1 <0>         0.0728
     28 H12         0.1072   -0.8578    1.9955 H         1 <0>         0.0709
     29 H13         2.4293   -4.3281    0.4824 H         1 <0>         0.0969
     30 H14         3.7721   -3.2463    0.0414 H         1 <0>         0.0970
     31 H15         5.7340   -3.0148    1.5008 H         1 <0>         0.0644
     32 H16         4.6636   -2.4008    2.7835 H         1 <0>         0.0987
     33 H17         6.7859   -3.2633    3.7324 H         1 <0>         0.0850
     34 H18         5.3998   -4.2380    4.2773 H         1 <0>         0.0760
     35 H19         7.2654   -4.9338    1.9638 H         1 <0>         0.0868
     36 H20         7.2860   -5.6870    3.5765 H         1 <0>         0.0877
     37 H21         3.9047   -6.2195    1.0098 H         1 <0>         0.0893
     38 H22         5.2908   -5.2448    0.4650 H         1 <0>         0.0894
     39 H23         6.7703   -7.8318    2.5084 H         1 <0>         0.4367
     40 H24         5.4681   -8.0369    1.5199 H         1 <0>         0.4356
     41 H25         6.7512   -7.1346    1.0156 H         1 <0>         0.4326
@<TRIPOS>BOND
     1    1    2 1
     2    1   20 1
     3    1   21 1
     4    1   22 1
     5    2    3 1
     6    2    7 1
     7    2    4 1
     8    4    5 1
     9    4   23 1
    10    4   24 1
    11    5    6 1
    12    5   25 1
    13    5   26 1
    14    6    7 1
    15    6    8 am
    16    7   27 1
    17    7   28 1
    18    8    9 2
    19    8   10 1
    20   10   11 1
    21   10   29 1
    22   10   30 1
    23   11   12 1
    24   11   18 1
    25   11   13 1
    26   13   14 1
    27   13   31 1
    28   13   32 1
    29   14   15 1
    30   14   33 1
    31   14   34 1
    32   15   16 1
    33   15   35 1
    34   15   36 1
    35   16   17 1
    36   16   18 1
    37   16   19 1
    38   18   37 1
    39   18   38 1
    40   19   39 1
    41   19   40 1
    42   19   41 1
@<TRIPOS>MOLECULE
ZINC03876618
   36    38     0     0     0
SMALL
USER_CHARGES
3-(1-aminoethyl)adamantane-1-thiol
@<TRIPOS>ATOM
      1 C1          0.6560    4.0920   -1.2315 C.3       1 <0>        -0.1883
      2 C2          1.3960    3.5852    0.0080 C.3       1 <0>         0.0411
      3 H1          0.8858    3.9367    0.9048 H         1 <0>         0.1443
      4 C3          1.4167    2.0553   -0.0004 C.3       1 <0>        -0.0706
      5 C4          2.1567    1.5485    1.2391 C.3       1 <0>        -0.1194
      6 C5          2.1775    0.0187    1.2307 C.3       1 <0>        -0.0798
      7 H2          2.7046   -0.3424    2.1137 H         1 <0>         0.0876
      8 C6          0.7421   -0.5109    1.2415 C.3       1 <0>        -0.1175
      9 C7          0.0021   -0.0041    0.0020 C.3       1 <0>        -0.0831
     10 H3         -1.0205   -0.3814    0.0098 H         1 <0>         0.0887
     11 C8         -0.0187    1.5258    0.0104 C.3       1 <0>        -0.1028
     12 C9          0.7182   -0.4975   -1.2568 C.3       1 <0>        -0.1117
     13 C10         2.1536    0.0321   -1.2676 C.3       1 <0>         0.0010
     14 C11         2.8936   -0.4747   -0.0281 C.3       1 <0>        -0.1122
     15 C12         2.1328    1.5619   -1.2592 C.3       1 <0>        -0.0981
     16 S1          3.0027   -0.5529   -2.7601 S.3       1 <0>        -0.2425
     17 H4          3.2686    3.7813   -0.8247 H         1 <0>         0.4337
     18 H5          2.7888    5.1001    0.0678 H         1 <0>         0.4388
     19 H6         -0.3666    3.7147   -1.2238 H         1 <0>         0.1105
     20 H7          0.6412    5.1819   -1.2255 H         1 <0>         0.0844
     21 H8          1.1662    3.7405   -2.1283 H         1 <0>         0.0859
     22 H9          1.6465    1.9000    2.1359 H         1 <0>         0.0850
     23 H10         3.1793    1.9258    1.2314 H         1 <0>         0.0609
     24 H11         0.2319   -0.1594    2.1383 H         1 <0>         0.0731
     25 H12         0.7568   -1.6008    1.2356 H         1 <0>         0.0716
     26 H13        -0.5459    1.8868   -0.8726 H         1 <0>         0.0814
     27 H14        -0.5289    1.8773    0.9072 H         1 <0>         0.0797
     28 H15         0.7330   -1.5874   -1.2628 H         1 <0>         0.0692
     29 H16         0.1910   -0.1364   -2.1398 H         1 <0>         0.0834
     30 H17         3.9162   -0.0975   -0.0359 H         1 <0>         0.0797
     31 H18         2.9084   -1.5646   -0.0341 H         1 <0>         0.0708
     32 H19         1.6057    1.9230   -2.1423 H         1 <0>         0.0952
     33 H20         3.1554    1.9392   -1.2670 H         1 <0>         0.0693
     34 H21         2.9578   -1.8931   -2.6558 H         1 <0>         0.1029
     35 N1          2.7830    4.0827    0.0186 N.4       1 <0>        -0.6494
     36 H22         3.2708    3.7048    0.8392 H         1 <0>         0.4372
@<TRIPOS>BOND
     1    1    2 1
     2    1   19 1
     3    1   20 1
     4    1   21 1
     5    2    3 1
     6    2    4 1
     7    2   35 1
     8    4   11 1
     9    4   15 1
    10    4    5 1
    11    5    6 1
    12    5   22 1
    13    5   23 1
    14    6    7 1
    15    6   14 1
    16    6    8 1
    17    8    9 1
    18    8   24 1
    19    8   25 1
    20    9   10 1
    21    9   11 1
    22    9   12 1
    23   11   26 1
    24   11   27 1
    25   12   13 1
    26   12   28 1
    27   12   29 1
    28   13   14 1
    29   13   15 1
    30   13   16 1
    31   14   30 1
    32   14   31 1
    33   15   32 1
    34   15   33 1
    35   16   34 1
    36   17   35 1
    37   18   35 1
    38   35   36 1
@<TRIPOS>MOLECULE
ZINC36928752
   30    31     0     0     0
SMALL
USER_CHARGES

@<TRIPOS>ATOM
      1 C1         -0.0184    1.5028    0.0103 C.3       1 <0>        -0.1179
      2 C2          0.0021   -0.0041    0.0020 C.ar      1 <0>        -0.0584
      3 C3          0.0058   -0.6870   -1.1954 C.ar      1 <0>        -0.0692
      4 C4          0.0246   -2.0749   -1.2192 C.ar      1 <0>        -0.0408
      5 C5          0.0402   -2.7895   -0.0404 C.ar      1 <0>        -0.0561
      6 C6          0.0371   -2.1099    1.1766 C.ar      1 <0>        -0.1285
      7 C7          0.0230   -0.7051    1.2007 C.ar      1 <0>         0.0781
      8 O1          0.0297   -0.3272    2.4952 O.3       1 <0>        -0.1914
      9 C8          0.0522   -1.3983    3.3073 C.2       1 <0>        -0.0737
     10 C9          0.0498   -2.5264    2.5840 C.2       1 <0>        -0.0775
     11 C10         0.0717   -3.9385    3.1098 C.3       1 <0>        -0.1082
     12 C11         0.0662   -1.3391    4.8131 C.3       1 <0>         0.1332
     13 H1          0.3497   -2.3129    5.2124 H         1 <0>         0.1672
     14 C12        -1.3276   -0.9656    5.3217 C.3       1 <0>        -0.1867
     15 N1          1.0358   -0.3277    5.2544 N.4       1 <0>        -0.6375
     16 Cl1         0.0277   -2.9137   -2.7391 Cl        1 <0>        -0.0393
     17 H2          1.0042    1.8801    0.0026 H         1 <0>         0.0808
     18 H3         -0.5455    1.8639   -0.8728 H         1 <0>         0.0825
     19 H4         -0.5286    1.8543    0.9071 H         1 <0>         0.0710
     20 H5         -0.0064   -0.1367   -2.1246 H         1 <0>         0.1556
     21 H6          0.0545   -3.8693   -0.0597 H         1 <0>         0.1463
     22 H7          1.1045   -4.2648    3.2318 H         1 <0>         0.0882
     23 H8         -0.4373   -3.9756    4.0730 H         1 <0>         0.0776
     24 H9         -0.4364   -4.5966    2.4048 H         1 <0>         0.0874
     25 H10        -2.0471   -1.7161    4.9943 H         1 <0>         0.1119
     26 H11        -1.3176   -0.9228    6.4109 H         1 <0>         0.0958
     27 H12        -1.6112    0.0082    4.9225 H         1 <0>         0.0882
     28 H13         0.7733    0.5737    4.8848 H         1 <0>         0.4393
     29 H14         1.0451   -0.2881    6.2626 H         1 <0>         0.4419
     30 H15         1.9550   -0.5740    4.9190 H         1 <0>         0.4403
@<TRIPOS>BOND
     1    1    2 1
     2    1   17 1
     3    1   18 1
     4    1   19 1
     5    2    7 ar
     6    2    3 ar
     7    3    4 ar
     8    3   20 1
     9    4    5 ar
    10    4   16 1
    11    5    6 ar
    12    5   21 1
    13    6   10 1
    14    6    7 ar
    15    7    8 1
    16    8    9 1
    17    9   10 2
    18    9   12 1
    19   10   11 1
    20   11   22 1
    21   11   23 1
    22   11   24 1
    23   12   13 1
    24   12   14 1
    25   12   15 1
    26   14   25 1
    27   14   26 1
    28   14   27 1
    29   15   28 1
    30   15   29 1
    31   15   30 1
@<TRIPOS>MOLECULE
ZINC41212321
   37    38     0     0     0
SMALL
USER_CHARGES

@<TRIPOS>ATOM
      1 C1         -0.0187    1.5258    0.0104 C.3       1 <0>        -0.1509
      2 C2          0.0021   -0.0041    0.0020 C.3       1 <0>        -0.0988
      3 H1         -1.0120   -0.4036   -0.0029 H         1 <0>         0.1050
      4 C3          0.8069   -0.5352   -1.2031 C.3       1 <0>        -0.0976
      5 C4          2.2214   -0.7045   -0.6912 C.ar      1 <0>        -0.0709
      6 C5          3.4149   -0.8410   -1.3804 C.ar      1 <0>        -0.1017
      7 C6          4.6030   -0.9846   -0.6911 C.ar      1 <0>        -0.0808
      8 C7          4.6019   -0.9921    0.6914 C.ar      1 <0>        -0.0610
      9 C8          3.4128   -0.8561    1.3804 C.ar      1 <0>        -0.0756
     10 C9          2.2203   -0.7121    0.6910 C.ar      1 <0>        -0.1700
     11 C10         0.8005   -0.5486    1.2055 C.3       1 <0>         0.0777
     12 H2          0.7733    0.1632    2.0306 H         1 <0>         0.1496
     13 N1          0.2586   -1.8457    1.6318 N.4       1 <0>        -0.6319
     14 C11         5.8970   -1.1491    1.4458 C.3       1 <0>        -0.0328
     15 C12         7.0532   -1.2800    0.4524 C.3       1 <0>        -0.1517
     16 C13         6.1227    0.0772    2.3324 C.3       1 <0>        -0.1423
     17 C14         5.8299   -2.4040    2.3186 C.3       1 <0>        -0.1407
     18 H3          1.0039    1.9031    0.0027 H         1 <0>         0.0698
     19 H4         -0.5459    1.8868   -0.8726 H         1 <0>         0.0806
     20 H5         -0.5289    1.8773    0.9072 H         1 <0>         0.0699
     21 H6          0.4066   -1.4941   -1.5323 H         1 <0>         0.0922
     22 H7          0.7842    0.1856   -2.0204 H         1 <0>         0.1010
     23 H8          3.4165   -0.8355   -2.4604 H         1 <0>         0.1335
     24 H9          5.5319   -1.0912   -1.2315 H         1 <0>         0.1418
     25 H10         3.4127   -0.8622    2.4604 H         1 <0>         0.1282
     26 H11         0.3221   -2.5037    0.8695 H         1 <0>         0.4333
     27 H12         0.7890   -2.1897    2.4182 H         1 <0>         0.4358
     28 H13         7.1010   -0.3860   -0.1693 H         1 <0>         0.0620
     29 H14         7.9900   -1.3936    0.9981 H         1 <0>         0.0674
     30 H15         6.8924   -2.1537   -0.1792 H         1 <0>         0.0613
     31 H16         5.2989    0.1705    3.0401 H         1 <0>         0.0553
     32 H17         7.0594   -0.0363    2.8781 H         1 <0>         0.0671
     33 H18         6.1704    0.9712    1.7106 H         1 <0>         0.0595
     34 H19         5.6691   -3.2777    1.6870 H         1 <0>         0.0581
     35 H20         6.7667   -2.5176    2.8642 H         1 <0>         0.0675
     36 H21         5.0062   -2.3108    3.0263 H         1 <0>         0.0538
     37 H22        -0.7076   -1.7346    1.9006 H         1 <0>         0.4362
@<TRIPOS>BOND
     1    1    2 1
     2    1   18 1
     3    1   19 1
     4    1   20 1
     5    2    3 1
     6    2   11 1
     7    2    4 1
     8    4    5 1
     9    4   21 1
    10    4   22 1
    11    5   10 ar
    12    5    6 ar
    13    6    7 ar
    14    6   23 1
    15    7    8 ar
    16    7   24 1
    17    8    9 ar
    18    8   14 1
    19    9   10 ar
    20    9   25 1
    21   10   11 1
    22   11   12 1
    23   11   13 1
    24   13   26 1
    25   13   27 1
    26   13   37 1
    27   14   15 1
    28   14   16 1
    29   14   17 1
    30   15   28 1
    31   15   29 1
    32   15   30 1
    33   16   31 1
    34   16   32 1
    35   16   33 1
    36   17   34 1
    37   17   35 1
    38   17   36 1
@<TRIPOS>MOLECULE
ZINC50326992
   35    37     0     0     0
SMALL
USER_CHARGES

@<TRIPOS>ATOM
      1 C1         -0.0164    1.3567    0.0095 C.ar      1 <0>        -0.0959
      2 C2          1.1686    2.0905    0.0021 C.ar      1 <0>        -0.1008
      3 C3          2.3785    1.4675   -0.0131 C.ar      1 <0>        -0.1061
      4 C4          2.4375    0.0634   -0.0211 C.ar      1 <0>        -0.0527
      5 C5          3.6681   -0.6153   -0.0364 C.ar      1 <0>        -0.0547
      6 C6          3.6865   -1.9761   -0.0434 C.ar      1 <0>        -0.1423
      7 C7          2.5015   -2.7098   -0.0357 C.ar      1 <0>        -0.1372
      8 C8          1.2917   -2.0868   -0.0209 C.ar      1 <0>        -0.0739
      9 C9          1.2327   -0.6827   -0.0133 C.ar      1 <0>        -0.0418
     10 C10         0.0021   -0.0041    0.0020 C.ar      1 <0>        -0.1096
     11 C11         5.0079   -2.7004   -0.0602 C.3       1 <0>         0.1492
     12 H1          5.7941   -2.0300    0.2868 H         1 <0>         0.1491
     13 C12         5.3158   -3.1512   -1.4649 C.2       1 <0>        -0.2180
     14 C13         6.3202   -2.7167   -2.1763 C.2       1 <0>        -0.0686
     15 C14         6.3443   -3.3692   -3.5389 C.3       1 <0>        -0.1158
     16 C15         5.4192   -4.6007   -3.4015 C.3       1 <0>        -0.1252
     17 C16         4.5061   -4.1703   -2.2323 C.3       1 <0>        -0.0899
     18 N1          4.9361   -3.8706    0.8250 N.4       1 <0>        -0.6342
     19 H2         -0.9633    1.8757    0.0259 H         1 <0>         0.1338
     20 H3          1.1260    3.1696    0.0083 H         1 <0>         0.1336
     21 H4          3.2884    2.0491   -0.0194 H         1 <0>         0.1341
     22 H5          4.5943   -0.0599   -0.0428 H         1 <0>         0.1361
     23 H6          2.5441   -3.7890   -0.0419 H         1 <0>         0.1177
     24 H7          0.3816   -2.6684   -0.0154 H         1 <0>         0.1382
     25 H8         -0.9241   -0.5595    0.0082 H         1 <0>         0.1355
     26 H9          7.0393   -1.9865   -1.8358 H         1 <0>         0.1376
     27 H10         5.9568   -2.6855   -4.2942 H         1 <0>         0.0935
     28 H11         7.3574   -3.6817   -3.7924 H         1 <0>         0.0885
     29 H12         4.8431   -4.7609   -4.3128 H         1 <0>         0.0847
     30 H13         5.9900   -5.4916   -3.1397 H         1 <0>         0.0778
     31 H14         4.2716   -5.0250   -1.5976 H         1 <0>         0.0634
     32 H15         3.5911   -3.7182   -2.6150 H         1 <0>         0.0871
     33 H16         5.8209   -4.3556    0.8137 H         1 <0>         0.4382
     34 H17         4.7300   -3.5688    1.7654 H         1 <0>         0.4384
     35 H18         4.2083   -4.4912    0.5037 H         1 <0>         0.4304
@<TRIPOS>BOND
     1    1   10 ar
     2    1    2 ar
     3    1   19 1
     4    2    3 ar
     5    2   20 1
     6    3    4 ar
     7    3   21 1
     8    4    9 ar
     9    4    5 ar
    10    5    6 ar
    11    5   22 1
    12    6    7 ar
    13    6   11 1
    14    7    8 ar
    15    7   23 1
    16    8    9 ar
    17    8   24 1
    18    9   10 ar
    19   10   25 1
    20   11   12 1
    21   11   13 1
    22   11   18 1
    23   13   17 1
    24   13   14 2
    25   14   15 1
    26   14   26 1
    27   15   16 1
    28   15   27 1
    29   15   28 1
    30   16   17 1
    31   16   29 1
    32   16   30 1
    33   17   31 1
    34   17   32 1
    35   18   33 1
    36   18   34 1
    37   18   35 1
@<TRIPOS>MOLECULE
ZINC61825887
   41    42     0     0     0
SMALL
USER_CHARGES

@<TRIPOS>ATOM
      1 C1         -0.6378    0.9741   -0.1848 C.3       1 <0>        -0.1293
      2 C2         -0.5507   -0.5064    0.0931 C.ar      1 <0>        -0.1337
      3 C3         -0.9197   -1.3066   -0.9838 C.ar      1 <0>        -0.0747
      4 C4         -0.8159   -2.6742   -0.9095 C.ar      1 <0>        -0.1785
      5 C5         -0.3111   -3.2381    0.2464 C.ar      1 <0>         0.1335
      6 C6          0.0377   -2.4403    1.3378 C.ar      1 <0>        -0.0727
      7 C7         -0.1534   -1.0674    1.2944 C.ar      1 <0>        -0.0866
      8 C8          0.0989   -0.2178    2.5194 C.3       1 <0>         0.0948
      9 H1          1.0942    0.1962    2.4738 H         1 <0>         0.1508
     10 C9         -0.1098   -1.0139    3.8200 C.3       1 <0>        -0.1411
     11 C10         1.2254   -1.5967    4.2770 C.3       1 <0>        -0.0618
     12 C11         1.8026   -2.4272    3.1332 C.3       1 <0>        -0.1134
     13 C12         0.6312   -3.1829    2.5029 C.3       1 <0>        -0.0932
     14 C13         2.2001   -0.4854    4.6620 C.3       1 <0>        -0.1538
     15 C14         0.9992   -2.4980    5.4960 C.3       1 <0>        -0.1493
     16 N1         -0.8800    0.8811    2.6390 N.4       1 <0>        -0.6480
     17 O1         -0.1623   -4.5884    0.3153 O.3       1 <0>        -0.3093
     18 C15        -0.5464   -5.3430   -0.8358 C.3       1 <0>         0.0220
     19 H2          0.3409    1.4300   -0.0356 H         1 <0>         0.0809
     20 H3         -0.9592    1.1323   -1.2143 H         1 <0>         0.0945
     21 H4         -1.3582    1.4296    0.4948 H         1 <0>         0.0515
     22 H5         -1.2897   -0.8325   -1.8825 H         1 <0>         0.1365
     23 H6         -1.1206   -3.2991   -1.7359 H         1 <0>         0.1427
     24 H7         -0.4856   -0.3285    4.5857 H         1 <0>         0.0867
     25 H8         -0.8419   -1.7966    3.6543 H         1 <0>         0.1054
     26 H9          2.2665   -1.7739    2.3967 H         1 <0>         0.0713
     27 H10         2.5355   -3.1329    3.5217 H         1 <0>         0.0843
     28 H11        -0.1409   -3.3801    3.2415 H         1 <0>         0.0878
     29 H12         1.0087   -4.1514    2.1516 H         1 <0>         0.0890
     30 H13         1.7770    0.1031    5.4761 H         1 <0>         0.0630
     31 H14         3.1439   -0.9253    4.9841 H         1 <0>         0.0733
     32 H15         2.3749    0.1591    3.8006 H         1 <0>         0.0526
     33 H16         0.3218   -3.3087    5.2277 H         1 <0>         0.0623
     34 H17         1.9525   -2.9140    5.8221 H         1 <0>         0.0687
     35 H18         0.5626   -1.9123    6.3049 H         1 <0>         0.0607
     36 H19        -1.8119    0.5173    2.5077 H         1 <0>         0.4348
     37 H20        -0.8076    1.2978    3.5551 H         1 <0>         0.4368
     38 H21        -1.6030   -5.1751   -1.0444 H         1 <0>         0.0611
     39 H22         0.0479   -5.0262   -1.6928 H         1 <0>         0.0616
     40 H23        -0.3772   -6.4033   -0.6483 H         1 <0>         0.1104
     41 H24        -0.6894    1.5793    1.9359 H         1 <0>         0.4283
@<TRIPOS>BOND
     1    1    2 1
     2    1   19 1
     3    1   20 1
     4    1   21 1
     5    2    7 ar
     6    2    3 ar
     7    3    4 ar
     8    3   22 1
     9    4    5 ar
    10    4   23 1
    11    5    6 ar
    12    5   17 1
    13    6   13 1
    14    6    7 ar
    15    7    8 1
    16    8    9 1
    17    8   10 1
    18    8   16 1
    19   10   11 1
    20   10   24 1
    21   10   25 1
    22   11   12 1
    23   11   14 1
    24   11   15 1
    25   12   13 1
    26   12   26 1
    27   12   27 1
    28   13   28 1
    29   13   29 1
    30   14   30 1
    31   14   31 1
    32   14   32 1
    33   15   33 1
    34   15   34 1
    35   15   35 1
    36   16   36 1
    37   16   37 1
    38   16   41 1
    39   17   18 1
    40   18   38 1
    41   18   39 1
    42   18   40 1
@<TRIPOS>MOLECULE
ZINC05721739
   33    34     0     0     0
SMALL
USER_CHARGES
1-(9,9-dimethyl-7,10-dioxabicyclo[4.4.0]deca-2,4,11-trien-8-yl)ethanamine
@<TRIPOS>ATOM
      1 C1          0.9584    5.0256    1.6375 C.3       1 <0>        -0.1749
      2 C2          0.8556    3.5147    1.4194 C.3       1 <0>         0.0031
      3 H1          1.3436    2.9946    2.2436 H         1 <0>         0.1424
      4 C3         -0.6179    3.1071    1.3601 C.3       1 <0>         0.0474
      5 H2         -1.0865    3.5469    0.4798 H         1 <0>         0.1474
      6 C4         -0.7296    1.5778    1.2963 C.3       1 <0>         0.0667
      7 O1         -0.1179    1.0343    2.4712 O.3       1 <0>        -0.2984
      8 C5         -0.4442    1.6182    3.6566 C.ar      1 <0>         0.0432
      9 C6         -0.1902    0.9426    4.8410 C.ar      1 <0>        -0.1075
     10 C7         -0.5134    1.5237    6.0525 C.ar      1 <0>        -0.1012
     11 C8         -1.0898    2.7799    6.0875 C.ar      1 <0>        -0.1041
     12 C9         -1.3464    3.4580    4.9110 C.ar      1 <0>        -0.1033
     13 C10        -1.0259    2.8798    3.6916 C.ar      1 <0>         0.0290
     14 O2         -1.2908    3.5569    2.5410 O.3       1 <0>        -0.2702
     15 C11        -0.0071    1.0591    0.0514 C.3       1 <0>        -0.1629
     16 C12        -2.2031    1.1689    1.2455 C.3       1 <0>        -0.1749
     17 H3          2.0081    5.3161    1.6797 H         1 <0>         0.0872
     18 H4          0.4703    5.5457    0.8132 H         1 <0>         0.0859
     19 H5          0.4699    5.2915    2.5749 H         1 <0>         0.1100
     20 H6          0.2609   -0.0383    4.8165 H         1 <0>         0.1401
     21 H7         -0.3150    0.9958    6.9736 H         1 <0>         0.1412
     22 H8         -1.3404    3.2318    7.0358 H         1 <0>         0.1416
     23 H9         -1.7966    4.4392    4.9410 H         1 <0>         0.1411
     24 H10        -0.2015   -0.0072   -0.0638 H         1 <0>         0.1178
     25 H11         1.0651    1.2235    0.1587 H         1 <0>         0.0699
     26 H12        -0.3701    1.5916   -0.8277 H         1 <0>         0.1053
     27 H13        -2.2775    0.0819    1.2111 H         1 <0>         0.0855
     28 H14        -2.7140    1.5401    2.1338 H         1 <0>         0.0769
     29 H15        -2.6674    1.5932    0.3553 H         1 <0>         0.0846
     30 H16         1.0399    3.5751   -0.6302 H         1 <0>         0.4307
     31 H17         2.4890    3.4157    0.1701 H         1 <0>         0.4356
     32 N1          1.5109    3.1313    0.1565 N.4       1 <0>        -0.6660
     33 H18         1.4600    2.1118    0.0457 H         1 <0>         0.4311
@<TRIPOS>BOND
     1    1    2 1
     2    1   17 1
     3    1   18 1
     4    1   19 1
     5    2    3 1
     6    2    4 1
     7    2   32 1
     8    4    5 1
     9    4   14 1
    10    4    6 1
    11    6    7 1
    12    6   15 1
    13    6   16 1
    14    7    8 1
    15    8   13 ar
    16    8    9 ar
    17    9   10 ar
    18    9   20 1
    19   10   11 ar
    20   10   21 1
    21   11   12 ar
    22   11   22 1
    23   12   13 ar
    24   12   23 1
    25   13   14 1
    26   15   24 1
    27   15   25 1
    28   15   26 1
    29   16   27 1
    30   16   28 1
    31   16   29 1
    32   30   32 1
    33   31   32 1
    34   32   33 1
@<TRIPOS>MOLECULE
ZINC31935571
   30    31     0     0     0
SMALL
USER_CHARGES
(2S)-2-(5-methylimidazo[1,2-a]pyridin-3-yl)propan-1-amine
@<TRIPOS>ATOM
      1 C1          1.3026   -2.1691   -0.2985 C.3       1 <0>        -0.1205
      2 C2          1.2779   -0.6633   -0.2442 C.2       1 <0>         0.0691
      3 C3          0.1091   -0.0209   -0.0385 C.2       1 <0>        -0.1258
      4 C4          0.0713    1.3824    0.0140 C.2       1 <0>        -0.0891
      5 C5          1.2200    2.0937   -0.1436 C.2       1 <0>        -0.0831
      6 C6          2.4326    1.4081   -0.3576 C.2       1 <0>         0.2436
      7 N1          2.4378    0.0381   -0.4039 N.pl3     1 <0>        -0.3470
      8 C7          3.7318   -0.3500   -0.6208 C.2       1 <0>        -0.0982
      9 C8          4.4774    0.7738   -0.7012 C.2       1 <0>         0.0509
     10 N2          3.6761    1.8295   -0.5398 N.2       1 <0>        -0.4851
     11 C9          4.2319   -1.7661   -0.7462 C.3       1 <0>        -0.0353
     12 H1          3.5501   -2.4302   -0.1946 H         1 <0>         0.1038
     13 C10         4.2664   -2.1659   -2.2227 C.3       1 <0>        -0.1677
     14 C11         5.6412   -1.8632   -0.1586 C.3       1 <0>         0.0047
     15 N3          6.0817   -3.2645   -0.1715 N.4       1 <0>        -0.6862
     16 H2          0.2843   -2.5581   -0.1507 H         1 <0>         0.0987
     17 H3          1.9608   -2.5538    0.4945 H         1 <0>         0.0755
     18 H4          1.6807   -2.4945   -1.2789 H         1 <0>         0.0803
     19 H5         -0.8015   -0.5881    0.0859 H         1 <0>         0.1565
     20 H6         -0.8661    1.8942    0.1742 H         1 <0>         0.1518
     21 H7          1.2030    3.1728   -0.1051 H         1 <0>         0.1589
     22 H8          5.5437    0.8119   -0.8681 H         1 <0>         0.1783
     23 H9          4.6314   -3.1995   -2.3142 H         1 <0>         0.0612
     24 H10         4.9394   -1.4895   -2.7701 H         1 <0>         0.0803
     25 H11         3.2532   -2.0961   -2.6452 H         1 <0>         0.0795
     26 H12         6.3324   -1.2560   -0.7615 H         1 <0>         0.1368
     27 H13         5.6334   -1.4908    0.8764 H         1 <0>         0.1352
     28 H14         7.0949   -3.3342    0.2510 H         1 <0>         0.4637
     29 H15         6.0896   -3.6369   -1.2065 H         1 <0>         0.4540
     30 H16         5.3904   -3.8717    0.4314 H         1 <0>         0.4552
@<TRIPOS>BOND
     1    1    2 1
     2    1   16 1
     3    1   17 1
     4    1   18 1
     5    2    7 1
     6    2    3 2
     7    3    4 1
     8    3   19 1
     9    4    5 2
    10    4   20 1
    11    5    6 1
    12    5   21 1
    13    6   10 2
    14    6    7 1
    15    7    8 1
    16    8    9 2
    17    8   11 1
    18    9   10 1
    19    9   22 1
    20   11   12 1
    21   11   13 1
    22   11   14 1
    23   13   23 1
    24   13   24 1
    25   13   25 1
    26   14   15 1
    27   14   26 1
    28   14   27 1
    29   15   28 1
    30   15   29 1
    31   15   30 1
@<TRIPOS>MOLECULE
ZINC37677182
   37    38     0     0     0
SMALL
USER_CHARGES

@<TRIPOS>ATOM
      1 C1         -1.7139    0.5038   -1.3633 C.3       1 <0>        -0.0906
      2 C2         -0.7910   -0.3866   -0.5719 C.2       1 <0>        -0.1776
      3 C3          0.5840   -0.1987   -0.3970 C.2       1 <0>         0.0518
      4 N1          1.0380   -1.1732    0.3487 N.2       1 <0>        -0.2380
      5 N2         -0.0352   -2.0132    0.6725 N.pl3     1 <0>        -0.3677
      6 C4         -1.1471   -1.5058    0.1001 C.2       1 <0>        -0.0280
      7 C5          0.0357   -3.2251    1.4924 C.3       1 <0>         0.1504
      8 H1          0.4127   -4.0507    0.8887 H         1 <0>         0.1145
      9 C6          0.9770   -2.9866    2.6746 C.3       1 <0>        -0.1298
     10 C7          1.3924   -1.5145    2.7080 C.3       1 <0>        -0.1176
     11 C8          0.1663   -0.6331    2.4610 C.3       1 <0>        -0.2111
     12 C9         -0.6917   -0.5865    3.7270 C.3       1 <0>        -0.1282
     13 C10        -1.4640   -1.8996    3.8681 C.3       1 <0>        -0.1193
     14 C11        -2.0478   -2.2974    2.5112 C.3       1 <0>        -0.1775
     15 C12        -1.3607   -3.5707    2.0137 C.3       1 <0>         0.0145
     16 H2         -1.2762   -4.2826    2.8348 H         1 <0>         0.1699
     17 N3         -2.1550   -4.1644    0.9300 N.4       1 <0>        -0.6453
     18 H3         -2.1157    1.2806   -0.7128 H         1 <0>         0.0737
     19 H4         -1.1606    0.9651   -2.1814 H         1 <0>         0.0766
     20 H5         -2.5331   -0.0904   -1.7684 H         1 <0>         0.0656
     21 H6          1.1697    0.6109   -0.8069 H         1 <0>         0.1956
     22 H7         -2.1423   -1.9203    0.1647 H         1 <0>         0.1654
     23 H8          0.4657   -3.2408    3.6031 H         1 <0>         0.0914
     24 H9          1.8632   -3.6117    2.5652 H         1 <0>         0.0910
     25 H10         1.8185   -1.2792    3.6833 H         1 <0>         0.0645
     26 H11         2.1355   -1.3290    1.9324 H         1 <0>         0.0986
     27 H12         0.4897    0.3755    2.2038 H         1 <0>         0.0591
     28 H13        -0.4194   -1.0472    1.6402 H         1 <0>         0.1373
     29 H14        -0.0492   -0.4475    4.5965 H         1 <0>         0.0664
     30 H15        -1.3953    0.2433    3.6588 H         1 <0>         0.0620
     31 H16        -0.7897   -2.6818    4.2168 H         1 <0>         0.0786
     32 H17        -2.2726   -1.7700    4.5875 H         1 <0>         0.0791
     33 H18        -3.1176   -2.4787    2.6150 H         1 <0>         0.0939
     34 H19        -1.8836   -1.4923    1.7950 H         1 <0>         0.1206
     35 H20        -1.7691   -5.0637    0.6840 H         1 <0>         0.4401
     36 H21        -3.1091   -4.2805    1.2371 H         1 <0>         0.4418
     37 H22        -2.1324   -3.5570    0.1247 H         1 <0>         0.4284
@<TRIPOS>BOND
     1    1    2 1
     2    1   18 1
     3    1   19 1
     4    1   20 1
     5    2    6 2
     6    2    3 1
     7    3    4 2
     8    3   21 1
     9    4    5 1
    10    5    6 1
    11    5    7 1
    12    6   22 1
    13    7    8 1
    14    7   15 1
    15    7    9 1
    16    9   10 1
    17    9   23 1
    18    9   24 1
    19   10   11 1
    20   10   25 1
    21   10   26 1
    22   11   12 1
    23   11   27 1
    24   11   28 1
    25   12   13 1
    26   12   29 1
    27   12   30 1
    28   13   14 1
    29   13   31 1
    30   13   32 1
    31   14   15 1
    32   14   33 1
    33   14   34 1
    34   15   16 1
    35   15   17 1
    36   17   35 1
    37   17   36 1
    38   17   37 1
@<TRIPOS>MOLECULE
ZINC50328074
   35    36     0     0     0
SMALL
USER_CHARGES

@<TRIPOS>ATOM
      1 C1         -0.0184    1.5028    0.0103 C.3       1 <0>        -0.1060
      2 C2          0.0021   -0.0041    0.0020 C.2       1 <0>        -0.0964
      3 C3          0.0089   -0.8403   -1.1379 C.2       1 <0>        -0.2136
      4 C4          0.0287   -2.1088   -0.6906 C.2       1 <0>         0.0117
      5 O1          0.0343   -2.0852    0.6522 O.3       1 <0>        -0.1749
      6 C5          0.0233   -0.8114    1.0777 C.2       1 <0>        -0.1085
      7 C6          0.0300   -0.3627    2.5164 C.3       1 <0>         0.1871
      8 H1          0.2815    0.6967    2.5654 H         1 <0>         0.1625
      9 C7         -1.3340   -0.5836    3.1179 C.2       1 <0>        -0.2061
     10 C8         -2.0444    0.4322    3.4935 C.2       1 <0>        -0.0589
     11 C9         -3.4165    0.2246    4.0982 C.3       1 <0>        -0.1038
     12 C10        -4.3761   -0.2188    2.9917 C.3       1 <0>        -0.1158
     13 C11        -4.3136   -1.7233    2.7963 C.3       1 <0>        -0.1260
     14 C12        -2.9816   -2.2122    2.2553 C.3       1 <0>        -0.1119
     15 C13        -1.8689   -1.9910    3.2740 C.3       1 <0>        -0.0805
     16 N1          1.0273   -1.1379    3.2664 N.4       1 <0>        -0.6361
     17 H2          1.0042    1.8801    0.0026 H         1 <0>         0.0822
     18 H3         -0.5455    1.8639   -0.8728 H         1 <0>         0.0838
     19 H4         -0.5286    1.8543    0.9071 H         1 <0>         0.0683
     20 H5         -0.0007   -0.5219   -2.1699 H         1 <0>         0.1618
     21 H6          0.0382   -2.9957   -1.3068 H         1 <0>         0.2174
     22 H7         -1.6559    1.4329    3.3742 H         1 <0>         0.1227
     23 H8         -3.3644   -0.5456    4.8677 H         1 <0>         0.0856
     24 H9         -3.7688    1.1589    4.5354 H         1 <0>         0.0830
     25 H10        -5.3927    0.0659    3.2630 H         1 <0>         0.0758
     26 H11        -4.1022    0.2758    2.0598 H         1 <0>         0.0648
     27 H12        -4.4992   -2.2074    3.7552 H         1 <0>         0.0643
     28 H13        -5.1009   -2.0177    2.1023 H         1 <0>         0.0673
     29 H14        -3.0550   -3.2758    2.0285 H         1 <0>         0.0709
     30 H15        -2.7433   -1.6669    1.3422 H         1 <0>         0.0640
     31 H16        -1.0677   -2.7086    3.0975 H         1 <0>         0.0599
     32 H17        -2.2657   -2.1220    4.2807 H         1 <0>         0.0899
     33 H18         0.7944   -2.1187    3.2210 H         1 <0>         0.4359
     34 H19         1.9405   -0.9901    2.8637 H         1 <0>         0.4389
     35 H20         1.0318   -0.8375    4.2296 H         1 <0>         0.4406
@<TRIPOS>BOND
     1    1    2 1
     2    1   17 1
     3    1   18 1
     4    1   19 1
     5    2    6 2
     6    2    3 1
     7    3    4 2
     8    3   20 1
     9    4    5 1
    10    4   21 1
    11    5    6 1
    12    6    7 1
    13    7    8 1
    14    7    9 1
    15    7   16 1
    16    9   15 1
    17    9   10 2
    18   10   11 1
    19   10   22 1
    20   11   12 1
    21   11   23 1
    22   11   24 1
    23   12   13 1
    24   12   25 1
    25   12   26 1
    26   13   14 1
    27   13   27 1
    28   13   28 1
    29   14   15 1
    30   14   29 1
    31   14   30 1
    32   15   31 1
    33   15   32 1
    34   16   33 1
    35   16   34 1
    36   16   35 1
@<TRIPOS>MOLECULE
ZINC54742804
   38    39     0     0     0
SMALL
USER_CHARGES

@<TRIPOS>ATOM
      1 C1         -0.1868    1.2857   -0.1034 C.3       1 <0>        -0.1414
      2 C2         -0.0727   -0.2400   -0.1008 C.3       1 <0>        -0.0349
      3 C3          0.6658   -0.6941    1.1599 C.3       1 <0>        -0.1424
      4 C4         -1.4729   -0.8562   -0.1214 C.3       1 <0>        -0.1517
      5 C5          0.6916   -0.6887   -1.3197 C.ar      1 <0>        -0.0529
      6 C6          0.0918   -1.5274   -2.2407 C.ar      1 <0>        -0.0891
      7 C7          0.7907   -1.9400   -3.3607 C.ar      1 <0>        -0.0972
      8 C8          2.0902   -1.5095   -3.5527 C.ar      1 <0>        -0.0957
      9 C9          2.6869   -0.6758   -2.6365 C.ar      1 <0>        -0.1490
     10 C10         1.9903   -0.2563   -1.5186 C.ar      1 <0>        -0.0800
     11 C11         4.1105   -0.2106   -2.8591 C.3       1 <0>         0.0476
     12 H1          4.3657    0.5548   -2.1263 H         1 <0>         0.1580
     13 C12         5.0422   -1.4165   -2.6926 C.3       1 <0>         0.0493
     14 O1          5.1093   -2.1618   -3.8940 O.3       1 <0>        -0.3857
     15 C13         3.9803   -2.9001   -4.3228 C.3       1 <0>         0.0551
     16 C14         2.8613   -1.9558   -4.7768 C.3       1 <0>        -0.1309
     17 N1          4.2460    0.3374   -4.2152 N.4       1 <0>        -0.6347
     18 H2          0.8108    1.7247   -0.0887 H         1 <0>         0.0556
     19 H3         -0.7129    1.6092   -1.0015 H         1 <0>         0.0584
     20 H4         -0.7395    1.6102    0.7782 H         1 <0>         0.0680
     21 H5          0.1131   -0.3696    2.0415 H         1 <0>         0.0680
     22 H6          0.7471   -1.7811    1.1617 H         1 <0>         0.0591
     23 H7          1.6634   -0.2551    1.1746 H         1 <0>         0.0562
     24 H8         -1.9991   -0.5327   -1.0196 H         1 <0>         0.0613
     25 H9         -1.3917   -1.9432   -0.1196 H         1 <0>         0.0616
     26 H10        -2.0257   -0.5317    0.7602 H         1 <0>         0.0680
     27 H11        -0.9238   -1.8606   -2.0856 H         1 <0>         0.1416
     28 H12         0.3239   -2.5953   -4.0812 H         1 <0>         0.1373
     29 H13         2.4591    0.4021   -0.8023 H         1 <0>         0.1356
     30 H14         6.0405   -1.0660   -2.4306 H         1 <0>         0.1303
     31 H15         4.6648   -2.0550   -1.8939 H         1 <0>         0.0972
     32 H16         4.2665   -3.5445   -5.1540 H         1 <0>         0.1227
     33 H17         3.6192   -3.5157   -3.4990 H         1 <0>         0.0739
     34 H18         2.1936   -2.4796   -5.4609 H         1 <0>         0.1133
     35 H19         3.2927   -1.0881   -5.2759 H         1 <0>         0.0629
     36 H20         3.3607    0.7180   -4.5142 H         1 <0>         0.4358
     37 H21         4.9429    1.0671   -4.2150 H         1 <0>         0.4341
     38 H22         4.5276   -0.3964   -4.8480 H         1 <0>         0.4350
@<TRIPOS>BOND
     1    1    2 1
     2    1   18 1
     3    1   19 1
     4    1   20 1
     5    2    3 1
     6    2    4 1
     7    2    5 1
     8    3   21 1
     9    3   22 1
    10    3   23 1
    11    4   24 1
    12    4   25 1
    13    4   26 1
    14    5   10 ar
    15    5    6 ar
    16    6    7 ar
    17    6   27 1
    18    7    8 ar
    19    7   28 1
    20    8   16 1
    21    8    9 ar
    22    9   10 ar
    23    9   11 1
    24   10   29 1
    25   11   12 1
    26   11   13 1
    27   11   17 1
    28   13   14 1
    29   13   30 1
    30   13   31 1
    31   14   15 1
    32   15   16 1
    33   15   32 1
    34   15   33 1
    35   16   34 1
    36   16   35 1
    37   17   36 1
    38   17   37 1
    39   17   38 1
@<TRIPOS>MOLECULE
ZINC04645054
   31    31     0     0     0
SMALL
USER_CHARGES
[2,2-dimethyl-3-(2-methylprop-1-enyl)cyclopropyl]methanamine
@<TRIPOS>ATOM
      1 C1         -0.0127    1.0858    0.0080 C.3       1 <0>        -0.1284
      2 C2         -0.7181    1.5718    1.2479 C.2       1 <0>        -0.0911
      3 C3         -0.0369    1.7934    2.3447 C.2       1 <0>        -0.1709
      4 C4         -0.7423    2.2794    3.5846 C.3       1 <0>        -0.0896
      5 H1         -1.7988    2.0210    3.6562 H         1 <0>         0.1186
      6 C5          0.0638    2.3241    4.8843 C.3       1 <0>        -0.2098
      7 H2          1.1043    2.0020    4.8425 H         1 <0>         0.1269
      8 C6         -0.3031    3.6249    4.1656 C.3       1 <0>        -0.0792
      9 C7         -1.3805    4.5045    4.8033 C.3       1 <0>        -0.1312
     10 C8          0.8182    4.3743    3.4431 C.3       1 <0>        -0.1281
     11 C9         -0.6750    2.0032    6.1851 C.3       1 <0>         0.0317
     12 C10        -2.2071    1.8029    1.2260 C.3       1 <0>        -0.1309
     13 H3          0.0021   -0.0041    0.0020 H         1 <0>         0.0733
     14 H4          1.0099    1.4631    0.0003 H         1 <0>         0.0665
     15 H5         -0.5399    1.4469   -0.8751 H         1 <0>         0.0703
     16 H6          1.0302    1.6277    2.3604 H         1 <0>         0.1136
     17 H7         -2.3118    3.9429    4.8761 H         1 <0>         0.0614
     18 H8         -1.0596    4.8068    5.8002 H         1 <0>         0.0661
     19 H9         -1.5375    5.3903    4.1879 H         1 <0>         0.0769
     20 H10         0.4141    5.2747    2.9806 H         1 <0>         0.0719
     21 H11         1.5917    4.6498    4.1599 H         1 <0>         0.0645
     22 H12         1.2476    3.7321    2.6741 H         1 <0>         0.0687
     23 H13        -0.5655    2.8357    6.8800 H         1 <0>         0.1341
     24 H14        -1.7321    1.8438    5.9727 H         1 <0>         0.1335
     25 H15        -0.5785    0.5546    7.6448 H         1 <0>         0.4400
     26 H16        -0.1381    0.0163    6.1341 H         1 <0>         0.4385
     27 H17        -2.7214    0.8859    1.5137 H         1 <0>         0.0710
     28 H18        -2.4618    2.5976    1.9272 H         1 <0>         0.0666
     29 H19        -2.5151    2.0924    0.2213 H         1 <0>         0.0701
     30 N1         -0.0834    0.7956    6.7878 N.4       1 <0>        -0.6444
     31 H20         0.9023    0.9777    7.0103 H         1 <0>         0.4396
@<TRIPOS>BOND
     1    1    2 1
     2    1   13 1
     3    1   14 1
     4    1   15 1
     5    2    3 2
     6    2   12 1
     7    3    4 1
     8    3   16 1
     9    4    5 1
    10    4    8 1
    11    4    6 1
    12    6    7 1
    13    6    8 1
    14    6   11 1
    15    8    9 1
    16    8   10 1
    17    9   17 1
    18    9   18 1
    19    9   19 1
    20   10   20 1
    21   10   21 1
    22   10   22 1
    23   11   23 1
    24   11   24 1
    25   11   30 1
    26   12   27 1
    27   12   28 1
    28   12   29 1
    29   25   30 1
    30   26   30 1
    31   30   31 1
@<TRIPOS>MOLECULE
ZINC22563749
   31    31     0     0     0
SMALL
USER_CHARGES
(1S,2S,4S)-4-ethyl-2-methoxy-cyclohexan-1-amine
@<TRIPOS>ATOM
      1 C1          1.4499    1.7433   -4.9965 C.3       1 <0>        -0.1600
      2 C2          2.1150    1.1354   -3.7600 C.3       1 <0>        -0.1226
      3 C3          1.3988    1.6288   -2.5012 C.3       1 <0>        -0.0907
      4 H1          1.3838    2.7287   -2.4952 H         1 <0>         0.0779
      5 C4         -0.0366    1.0992   -2.4903 C.3       1 <0>        -0.1202
      6 C5         -0.7527    1.5927   -1.2315 C.3       1 <0>        -0.1395
      7 C6         -0.0127    1.0858    0.0080 C.3       1 <0>         0.0460
      8 H2         -0.0184   -0.0138    0.0384 H         1 <0>         0.1422
      9 C7          1.4227    1.6154   -0.0028 C.3       1 <0>         0.0708
     10 H3          1.4434    2.7132    0.0635 H         1 <0>         0.0827
     11 C8          2.1388    1.1220   -1.2617 C.3       1 <0>        -0.1360
     12 O1          2.1138    1.1420    1.1549 O.3       1 <0>        -0.3981
     13 C9          3.1341    2.0255    1.6245 C.3       1 <0>         0.0225
     14 N1         -0.7003    1.5596    1.2166 N.4       1 <0>        -0.6861
     15 H4          1.9648    1.3886   -5.9015 H         1 <0>         0.0614
     16 H5          1.5131    2.8403   -4.9448 H         1 <0>         0.0562
     17 H6          0.3937    1.4381   -5.0321 H         1 <0>         0.0572
     18 H7          2.0518    0.0384   -3.8117 H         1 <0>         0.0675
     19 H8          3.1712    1.4406   -3.7244 H         1 <0>         0.0684
     20 H9         -0.5686    1.4636   -3.3815 H         1 <0>         0.0911
     21 H10        -0.0217   -0.0007   -2.4963 H         1 <0>         0.0779
     22 H11        -0.7675    2.6926   -1.2255 H         1 <0>         0.0884
     23 H12        -1.7847    1.2121   -1.2237 H         1 <0>         0.0948
     24 H13         2.1537    0.0221   -1.2678 H         1 <0>         0.0851
     25 H14         3.1708    1.5027   -1.2695 H         1 <0>         0.0851
     26 H15         3.6153    1.5906    2.5130 H         1 <0>         0.1028
     27 H16         2.6867    2.9954    1.8875 H         1 <0>         0.0495
     28 H17         3.8857    2.1705    0.8345 H         1 <0>         0.0565
     29 H18        -0.1683    1.1952    2.1078 H         1 <0>         0.4629
     30 H19        -1.7323    1.1789    1.2244 H         1 <0>         0.4575
     31 H20        -0.7152    2.6595    1.2226 H         1 <0>         0.4489
@<TRIPOS>BOND
     1    1    2 1
     2    1   15 1
     3    1   16 1
     4    1   17 1
     5    2    3 1
     6    2   18 1
     7    2   19 1
     8    3    4 1
     9    3   11 1
    10    3    5 1
    11    5    6 1
    12    5   20 1
    13    5   21 1
    14    6    7 1
    15    6   22 1
    16    6   23 1
    17    7    8 1
    18    7    9 1
    19    7   14 1
    20    9   10 1
    21    9   11 1
    22    9   12 1
    23   11   24 1
    24   11   25 1
    25   12   13 1
    26   13   26 1
    27   13   27 1
    28   13   28 1
    29   14   29 1
    30   14   30 1
    31   14   31 1
@<TRIPOS>MOLECULE
ZINC38343271
   34    35     0     0     0
SMALL
USER_CHARGES

@<TRIPOS>ATOM
      1 C1          0.2970    1.7434   -0.4043 C.3       1 <0>        -0.1341
      2 C2          0.1760    0.2341   -0.1848 C.3       1 <0>        -0.0971
      3 C3         -1.2316   -0.2816    0.2444 C.3       1 <0>        -0.1277
      4 C4         -0.9640   -1.6655    0.8790 C.3       1 <0>        -0.1353
      5 C5          0.5801   -1.8557    0.7734 C.3       1 <0>        -0.0924
      6 H1          1.0167   -2.5923    1.4478 H         1 <0>         0.1086
      7 C6          1.0678   -0.3749    0.9541 C.3       1 <0>        -0.1136
      8 C7          0.8423   -2.0834   -0.7467 C.3       1 <0>        -0.0462
      9 C8          0.5921   -0.6653   -1.3887 C.3       1 <0>        -0.1066
     10 H2          1.4930   -0.2744   -1.8615 H         1 <0>         0.1021
     11 C9         -0.5480   -0.7575   -2.4048 C.3       1 <0>        -0.0174
     12 N1         -0.8654    0.5857   -2.9077 N.4       1 <0>        -0.6420
     13 C10        -0.1193   -3.1360   -1.3020 C.3       1 <0>        -0.1590
     14 C11         2.2933   -2.5089   -0.9798 C.3       1 <0>        -0.1479
     15 H3          1.3424    2.0038   -0.5699 H         1 <0>         0.0778
     16 H4         -0.2917    2.0323   -1.2750 H         1 <0>         0.0348
     17 H5         -0.0735    2.2694    0.4755 H         1 <0>         0.0827
     18 H6         -1.6762    0.3925    0.9765 H         1 <0>         0.0793
     19 H7         -1.8811   -0.3815   -0.6252 H         1 <0>         0.0553
     20 H8         -1.2770   -1.6718    1.9230 H         1 <0>         0.0738
     21 H9         -1.4819   -2.4458    0.3214 H         1 <0>         0.0787
     22 H10         2.1315   -0.2661    0.7427 H         1 <0>         0.0782
     23 H11         0.8077    0.0244    1.9345 H         1 <0>         0.0810
     24 H12        -0.2436   -1.3941   -3.2356 H         1 <0>         0.1369
     25 H13        -1.4290   -1.1833   -1.9247 H         1 <0>         0.1434
     26 H14        -1.2950    1.1272   -2.1727 H         1 <0>         0.4309
     27 H15        -0.0171    1.0411   -3.2092 H         1 <0>         0.4336
     28 H16        -1.1373   -2.7472   -1.2774 H         1 <0>         0.0629
     29 H17         0.1548   -3.3721   -2.3302 H         1 <0>         0.0617
     30 H18        -0.0604   -4.0387   -0.6939 H         1 <0>         0.0741
     31 H19         2.4833   -3.4501   -0.4638 H         1 <0>         0.0675
     32 H20         2.4667   -2.6388   -2.0481 H         1 <0>         0.0589
     33 H21         2.9636   -1.7411   -0.5936 H         1 <0>         0.0620
     34 H22        -1.5023    0.5113   -3.6868 H         1 <0>         0.4352
@<TRIPOS>BOND
     1    1    2 1
     2    1   15 1
     3    1   16 1
     4    1   17 1
     5    2    7 1
     6    2    9 1
     7    2    3 1
     8    3    4 1
     9    3   18 1
    10    3   19 1
    11    4    5 1
    12    4   20 1
    13    4   21 1
    14    5    6 1
    15    5    7 1
    16    5    8 1
    17    7   22 1
    18    7   23 1
    19    8    9 1
    20    8   13 1
    21    8   14 1
    22    9   10 1
    23    9   11 1
    24   11   12 1
    25   11   24 1
    26   11   25 1
    27   12   26 1
    28   12   27 1
    29   12   34 1
    30   13   28 1
    31   13   29 1
    32   13   30 1
    33   14   31 1
    34   14   32 1
    35   14   33 1
@<TRIPOS>MOLECULE
ZINC51074729
   25    24     0     0     0
SMALL
USER_CHARGES

@<TRIPOS>ATOM
      1 C1         -0.0187    1.5258    0.0104 C.3       1 <0>        -0.1523
      2 C2          0.0021   -0.0041    0.0020 C.3       1 <0>        -0.0819
      3 C3          0.7421   -0.5109    1.2415 C.3       1 <0>        -0.1706
      4 C4         -1.4333   -0.5336    0.0129 C.3       1 <0>        -0.1662
      5 C5          0.7182   -0.4975   -1.2568 C.3       1 <0>         0.0412
      6 H1          0.1910   -0.1364   -2.1398 H         1 <0>         0.1473
      7 C6          2.1536    0.0321   -1.2676 C.3       1 <0>        -0.0275
      8 C7          2.8049   -0.3416   -2.5337 C.1       1 <0>        -0.2619
      9 C8          3.3243   -0.6396   -3.5435 C.1       1 <0>        -0.1266
     10 N1          0.7381   -1.9663   -1.2649 N.4       1 <0>        -0.6377
     11 H2          1.0039    1.9031    0.0027 H         1 <0>         0.0717
     12 H3         -0.5459    1.8868   -0.8726 H         1 <0>         0.0709
     13 H4         -0.5289    1.8773    0.9072 H         1 <0>         0.0811
     14 H5          0.2319   -0.1594    2.1383 H         1 <0>         0.0882
     15 H6          0.7568   -1.6008    1.2356 H         1 <0>         0.0538
     16 H7          1.7647   -0.1336    1.2338 H         1 <0>         0.0770
     17 H8         -1.9605   -0.1726   -0.8702 H         1 <0>         0.0753
     18 H9         -1.4185   -1.6235    0.0069 H         1 <0>         0.0533
     19 H10        -1.9435   -0.1821    0.9097 H         1 <0>         0.0879
     20 H11         2.1410    1.1178   -1.1721 H         1 <0>         0.1352
     21 H12         2.7065   -0.3997   -0.4334 H         1 <0>         0.1116
     22 H13         3.7889   -0.9061   -4.4466 H         1 <0>         0.2281
     23 H14         1.2261   -2.3006   -0.4474 H         1 <0>         0.4315
     24 H15        -0.2085   -2.3156   -1.2577 H         1 <0>         0.4351
     25 H16         1.2104   -2.2917   -2.0950 H         1 <0>         0.4354
@<TRIPOS>BOND
     1    1    2 1
     2    1   11 1
     3    1   12 1
     4    1   13 1
     5    2    3 1
     6    2    4 1
     7    2    5 1
     8    3   14 1
     9    3   15 1
    10    3   16 1
    11    4   17 1
    12    4   18 1
    13    4   19 1
    14    5    6 1
    15    5    7 1
    16    5   10 1
    17    7    8 1
    18    7   20 1
    19    7   21 1
    20    8    9 3
    21    9   22 1
    22   10   23 1
    23   10   24 1
    24   10   25 1
@<TRIPOS>MOLECULE
ZINC50520158
   32    33     0     0     0
SMALL
USER_CHARGES

@<TRIPOS>ATOM
      1 C1         -0.0187    1.5258    0.0104 C.3       1 <0>        -0.1167
      2 C2          1.4167    2.0553   -0.0004 C.3       1 <0>        -0.1252
      3 C3          2.1328    1.5619   -1.2592 C.3       1 <0>        -0.1392
      4 C4          2.1536    0.0321   -1.2676 C.3       1 <0>         0.0678
      5 H1          2.6638   -0.3194   -2.1644 H         1 <0>         0.0846
      6 C5          0.7182   -0.4975   -1.2568 C.3       1 <0>         0.0329
      7 H2          0.1910   -0.1364   -2.1398 H         1 <0>         0.1510
      8 C6          0.0021   -0.0041    0.0020 C.3       1 <0>        -0.1381
      9 N1          0.7381   -1.9663   -1.2649 N.4       1 <0>        -0.6355
     10 O1          2.8447   -0.4413   -0.1099 O.3       1 <0>        -0.3714
     11 C7          4.2500   -0.6149   -0.3025 C.3       1 <0>         0.0587
     12 C8          4.7013   -2.0843   -0.2553 C.3       1 <0>        -0.1613
     13 C9          5.9326   -1.5990    0.5279 C.3       1 <0>        -0.1431
     14 C10         5.0779   -0.4016    0.9758 C.3       1 <0>        -0.1364
     15 H3         -0.5289    1.8773    0.9072 H         1 <0>         0.0857
     16 H4         -0.5459    1.8868   -0.8726 H         1 <0>         0.0730
     17 H5          1.4019    3.1452    0.0056 H         1 <0>         0.0773
     18 H6          1.9439    1.6943    0.8826 H         1 <0>         0.0782
     19 H7          1.6057    1.9230   -2.1423 H         1 <0>         0.0826
     20 H8          3.1554    1.9392   -1.2670 H         1 <0>         0.0848
     21 H9          0.5293   -0.3651    0.8851 H         1 <0>         0.0958
     22 H10        -1.0205   -0.3814    0.0098 H         1 <0>         0.0871
     23 H11         1.2261   -2.3006   -0.4474 H         1 <0>         0.4379
     24 H12        -0.2085   -2.3156   -1.2577 H         1 <0>         0.4366
     25 H13         4.6299   -0.0676   -1.1651 H         1 <0>         0.0966
     26 H14         4.0392   -2.7260    0.3259 H         1 <0>         0.0877
     27 H15         4.9421   -2.4987   -1.2343 H         1 <0>         0.0730
     28 H16         6.2190   -2.2610    1.3451 H         1 <0>         0.0821
     29 H17         6.7733   -1.3218   -0.1081 H         1 <0>         0.0883
     30 H18         5.6227    0.5424    0.9907 H         1 <0>         0.0782
     31 H19         4.5187   -0.5833    1.8936 H         1 <0>         0.0935
     32 H20         1.2104   -2.2917   -2.0950 H         1 <0>         0.4335
@<TRIPOS>BOND
     1    1    8 1
     2    1    2 1
     3    1   15 1
     4    1   16 1
     5    2    3 1
     6    2   17 1
     7    2   18 1
     8    3    4 1
     9    3   19 1
    10    3   20 1
    11    4    5 1
    12    4    6 1
    13    4   10 1
    14    6    7 1
    15    6    8 1
    16    6    9 1
    17    8   21 1
    18    8   22 1
    19    9   23 1
    20    9   24 1
    21    9   32 1
    22   10   11 1
    23   11   14 1
    24   11   12 1
    25   11   25 1
    26   12   13 1
    27   12   26 1
    28   12   27 1
    29   13   14 1
    30   13   28 1
    31   13   29 1
    32   14   30 1
    33   14   31 1
@<TRIPOS>MOLECULE
ZINC19420761
   27    27     0     0     0
SMALL
USER_CHARGES
(1R)-1-(4-bromophenyl)-2-methyl-propan-1-amine
@<TRIPOS>ATOM
      1 C1         -0.0127    1.0858    0.0080 C.3       1 <0>        -0.1558
      2 C2         -0.7288    1.5792    1.2668 C.3       1 <0>        -0.1070
      3 C3          0.0111    1.0724    2.5063 C.3       1 <0>        -0.1719
      4 C4         -2.1642    1.0497    1.2777 C.3       1 <0>         0.0935
      5 H1         -2.1780   -0.0501    1.2947 H         1 <0>         0.1442
      6 C5         -2.8931    1.5489    0.0568 C.ar      1 <0>        -0.1270
      7 C6         -3.4087    2.8314    0.0361 C.ar      1 <0>        -0.1156
      8 C7         -4.0731    3.2913   -1.0853 C.ar      1 <0>        -0.0781
      9 C8         -4.2312    2.4645   -2.1829 C.ar      1 <0>        -0.0719
     10 C9         -3.7197    1.1795   -2.1598 C.ar      1 <0>        -0.0789
     11 C10        -3.0509    0.7222   -1.0400 C.ar      1 <0>        -0.0817
     12 Br1        -5.1469    3.0905   -3.7145 Br        1 <0>        -0.0171
     13 N1         -2.8518    1.5234    2.4863 N.4       1 <0>        -0.6879
     14 H2         -0.5447    1.4502   -0.8831 H         1 <0>         0.0693
     15 H3          0.0022   -0.0141    0.0020 H         1 <0>         0.0680
     16 H4          1.0193    1.4665    0.0002 H         1 <0>         0.0777
     17 H5         -0.7436    2.6791    1.2728 H         1 <0>         0.0956
     18 H6         -0.5038    1.4272    3.4113 H         1 <0>         0.0534
     19 H7          1.0431    1.4531    2.4985 H         1 <0>         0.0867
     20 H8          0.0260   -0.0275    2.5003 H         1 <0>         0.0746
     21 H9         -3.2888    3.4754    0.8947 H         1 <0>         0.1290
     22 H10        -4.4726    4.2945   -1.1028 H         1 <0>         0.1452
     23 H11        -3.8432    0.5335   -3.0164 H         1 <0>         0.1468
     24 H12        -2.6518   -0.2812   -1.0216 H         1 <0>         0.1425
     25 H13        -3.8838    1.1427    2.4940 H         1 <0>         0.4598
     26 H14        -2.8667    2.6233    2.4924 H         1 <0>         0.4494
     27 H15        -2.3198    1.1589    3.3774 H         1 <0>         0.4573
@<TRIPOS>BOND
     1    1    2 1
     2    1   14 1
     3    1   15 1
     4    1   16 1
     5    2    3 1
     6    2    4 1
     7    2   17 1
     8    3   18 1
     9    3   19 1
    10    3   20 1
    11    4    5 1
    12    4    6 1
    13    4   13 1
    14    6   11 ar
    15    6    7 ar
    16    7    8 ar
    17    7   21 1
    18    8    9 ar
    19    8   22 1
    20    9   10 ar
    21    9   12 1
    22   10   11 ar
    23   10   23 1
    24   11   24 1
    25   13   25 1
    26   13   26 1
    27   13   27 1
@<TRIPOS>MOLECULE
ZINC36379702
   24    24     0     0     0
SMALL
USER_CHARGES

@<TRIPOS>ATOM
      1 C1         -0.0167    1.3780    0.0096 C.ar      1 <0>        -0.0635
      2 C2          1.1706    2.0863    0.0021 C.ar      1 <0>        -0.0838
      3 C3          2.3780    1.4119   -0.0130 C.ar      1 <0>        -0.0069
      4 C4          2.3968    0.0272   -0.0206 C.ar      1 <0>        -0.0260
      5 C5          1.2081   -0.6797   -0.0130 C.ar      1 <0>        -0.1011
      6 C6          0.0021   -0.0041    0.0020 C.ar      1 <0>        -0.1392
      7 C7         -1.2929   -0.7748    0.0107 C.3       1 <0>         0.0891
      8 H1         -2.0955   -0.1327    0.3736 H         1 <0>         0.1695
      9 C8         -1.6171   -1.2433   -1.4093 C.3       1 <0>        -0.1938
     10 C9         -2.9907   -1.9169   -1.4229 C.3       1 <0>         0.4489
     11 F1         -3.9623   -1.0035   -1.0000 F         1 <0>        -0.1661
     12 F2         -3.2872   -2.3453   -2.7213 F         1 <0>        -0.1536
     13 F3         -2.9788   -3.0180   -0.5600 F         1 <0>        -0.1877
     14 N1         -1.1623   -1.9417    0.8934 N.4       1 <0>        -0.6460
     15 Cl1         3.9115   -0.8207   -0.0401 Cl        1 <0>        -0.0142
     16 Cl2         3.8691    2.3008   -0.0231 Cl        1 <0>        -0.0100
     17 H2         -0.9593    1.9049    0.0259 H         1 <0>         0.1555
     18 H3          1.1552    3.1661    0.0076 H         1 <0>         0.1612
     19 H4          1.2220   -1.7596   -0.0193 H         1 <0>         0.1424
     20 H5         -1.6264   -0.3854   -2.0817 H         1 <0>         0.1663
     21 H6         -0.8601   -1.9550   -1.7388 H         1 <0>         0.1427
     22 H7         -0.9485   -1.6328    1.8299 H         1 <0>         0.4456
     23 H8         -2.0293   -2.4578    0.8993 H         1 <0>         0.4368
     24 H9         -0.4194   -2.5361    0.5575 H         1 <0>         0.4339
@<TRIPOS>BOND
     1    1    6 ar
     2    1    2 ar
     3    1   17 1
     4    2    3 ar
     5    2   18 1
     6    3    4 ar
     7    3   16 1
     8    4    5 ar
     9    4   15 1
    10    5    6 ar
    11    5   19 1
    12    6    7 1
    13    7    8 1
    14    7    9 1
    15    7   14 1
    16    9   10 1
    17    9   20 1
    18    9   21 1
    19   10   11 1
    20   10   12 1
    21   10   13 1
    22   14   22 1
    23   14   23 1
    24   14   24 1
@<TRIPOS>MOLECULE
ZINC38127592
   28    29     0     0     0
SMALL
USER_CHARGES

@<TRIPOS>ATOM
      1 C1          0.0548    1.4952    0.1244 C.ar      1 <0>        -0.0461
      2 C2          0.0319    0.1147    0.1897 C.ar      1 <0>        -0.1296
      3 C3          1.2161   -0.6006    0.1371 C.ar      1 <0>         0.1129
      4 C4          2.4229    0.0677    0.0192 C.ar      1 <0>        -0.1746
      5 C5          2.4441    1.4490   -0.0459 C.ar      1 <0>         0.0121
      6 C6          1.2594    2.1623    0.0068 C.ar      1 <0>        -0.1027
      7 Cl1         3.9567    2.2879   -0.1938 Cl        1 <0>        -0.0246
      8 C7          3.7128   -0.7096   -0.0376 C.3       1 <0>         0.0831
      9 H1          4.5527   -0.0310    0.1112 H         1 <0>         0.1582
     10 C8          3.8402   -1.3871   -1.4034 C.3       1 <0>        -0.0796
     11 C9          5.1836   -2.0623   -1.5059 C.2       1 <0>        -0.1452
     12 C10         6.2773   -1.3768   -2.0002 C.2       1 <0>        -0.1682
     13 C11         7.4714   -2.0135   -2.0792 C.2       1 <0>        -0.1481
     14 S1          7.0695   -3.6323   -1.4428 S.3       1 <0>         0.0999
     15 C12         5.3386   -3.3492   -1.1094 C.2       1 <0>        -0.2120
     16 N1          3.7157   -1.7312    1.0180 N.4       1 <0>        -0.6381
     17 F1          1.1941   -1.9499    0.2013 F         1 <0>        -0.1313
     18 H2         -0.8695    2.0527    0.1609 H         1 <0>         0.1603
     19 H3         -0.9098   -0.4059    0.2820 H         1 <0>         0.1586
     20 H4          1.2763    3.2410   -0.0441 H         1 <0>         0.1582
     21 H5          3.0506   -2.1301   -1.5155 H         1 <0>         0.1018
     22 H6          3.7490   -0.6384   -2.1903 H         1 <0>         0.1231
     23 H7          6.1819   -0.3494   -2.3192 H         1 <0>         0.1420
     24 H8          8.4197   -1.6388   -2.4351 H         1 <0>         0.1951
     25 H9          4.6051   -4.0276   -0.6992 H         1 <0>         0.1876
     26 H10         3.0165   -2.4290    0.8126 H         1 <0>         0.4312
     27 H11         4.6243   -2.1679    1.0609 H         1 <0>         0.4387
     28 H12         3.5083   -1.2984    1.9055 H         1 <0>         0.4374
@<TRIPOS>BOND
     1    1    6 ar
     2    1    2 ar
     3    1   18 1
     4    2    3 ar
     5    2   19 1
     6    3    4 ar
     7    3   17 1
     8    4    5 ar
     9    4    8 1
    10    5    6 ar
    11    5    7 1
    12    6   20 1
    13    8    9 1
    14    8   10 1
    15    8   16 1
    16   10   11 1
    17   10   21 1
    18   10   22 1
    19   11   15 2
    20   11   12 1
    21   12   13 2
    22   12   23 1
    23   13   14 1
    24   13   24 1
    25   14   15 1
    26   15   25 1
    27   16   26 1
    28   16   27 1
    29   16   28 1
@<TRIPOS>MOLECULE
ZINC41727787
   36    38     0     0     0
SMALL
USER_CHARGES

@<TRIPOS>ATOM
      1 C1         -0.0184    1.5028    0.0103 C.3       1 <0>        -0.1301
      2 C2          0.0021   -0.0041    0.0020 C.ar      1 <0>        -0.0553
      3 C3          0.0057   -0.6876   -1.2000 C.ar      1 <0>        -0.0892
      4 C4          0.0240   -2.0685   -1.2109 C.ar      1 <0>        -0.1016
      5 C5          0.0391   -2.7713   -0.0134 C.ar      1 <0>         0.1021
      6 C6          0.0359   -2.0836    1.1920 C.ar      1 <0>        -0.1024
      7 C7          0.0229   -0.7011    1.1972 C.ar      1 <0>        -0.0251
      8 Cl1         0.0260    0.1609    2.7041 Cl        1 <0>        -0.0402
      9 N1          0.0572   -4.1732   -0.0221 N.pl3     1 <0>        -0.3789
     10 C8         -0.7831   -4.9779   -0.7412 C.2       1 <0>         0.0147
     11 C9         -0.4558   -6.2640   -0.4895 C.2       1 <0>        -0.1884
     12 C10         0.6193   -6.2527    0.4120 C.2       1 <0>        -0.2408
     13 C11         0.9173   -4.9605    0.6788 C.2       1 <0>         0.0822
     14 C12         2.0229   -4.5237    1.6082 C.3       1 <0>        -0.0707
     15 C13         2.4341   -5.7240    2.4695 C.3       1 <0>        -0.1086
     16 C14         2.6880   -6.9365    1.5696 C.3       1 <0>        -0.1426
     17 C15         1.3502   -7.4328    1.0001 C.3       1 <0>         0.1209
     18 H1          0.7473   -7.8818    1.7894 H         1 <0>         0.1452
     19 N2          1.6114   -8.4264   -0.0498 N.4       1 <0>        -0.6335
     20 H2          1.0042    1.8801    0.0026 H         1 <0>         0.0859
     21 H3         -0.5455    1.8639   -0.8728 H         1 <0>         0.0802
     22 H4         -0.5286    1.8543    0.9071 H         1 <0>         0.0807
     23 H5         -0.0061   -0.1410   -2.1314 H         1 <0>         0.1485
     24 H6          0.0261   -2.6015   -2.1503 H         1 <0>         0.1389
     25 H7          0.0474   -2.6277    2.1249 H         1 <0>         0.1413
     26 H8         -1.5726   -4.6426   -1.3974 H         1 <0>         0.1755
     27 H9         -0.9334   -7.1391   -0.9049 H         1 <0>         0.1477
     28 H10         2.8777   -4.1800    1.0257 H         1 <0>         0.0911
     29 H11         1.6666   -3.7171    2.2489 H         1 <0>         0.0889
     30 H12         3.3442   -5.4822    3.0185 H         1 <0>         0.0950
     31 H13         1.6356   -5.9557    3.1744 H         1 <0>         0.0811
     32 H14         3.3528   -6.6511    0.7543 H         1 <0>         0.0892
     33 H15         3.1500   -7.7322    2.1538 H         1 <0>         0.0955
     34 H16         2.1769   -8.0097   -0.7741 H         1 <0>         0.4332
     35 H17         2.1005   -9.2146    0.3472 H         1 <0>         0.4346
     36 H18         0.7360   -8.7375   -0.4437 H         1 <0>         0.4349
@<TRIPOS>BOND
     1    1    2 1
     2    1   20 1
     3    1   21 1
     4    1   22 1
     5    2    7 ar
     6    2    3 ar
     7    3    4 ar
     8    3   23 1
     9    4    5 ar
    10    4   24 1
    11    5    6 ar
    12    5    9 1
    13    6    7 ar
    14    6   25 1
    15    7    8 1
    16    9   13 1
    17    9   10 1
    18   10   11 2
    19   10   26 1
    20   11   12 1
    21   11   27 1
    22   12   17 1
    23   12   13 2
    24   13   14 1
    25   14   15 1
    26   14   28 1
    27   14   29 1
    28   15   16 1
    29   15   30 1
    30   15   31 1
    31   16   17 1
    32   16   32 1
    33   16   33 1
    34   17   18 1
    35   17   19 1
    36   19   34 1
    37   19   35 1
    38   19   36 1
@<TRIPOS>MOLECULE
ZINC53816671
   31    32     0     0     0
SMALL
USER_CHARGES

@<TRIPOS>ATOM
      1 C1         -0.0184    1.5028    0.0103 C.3       1 <0>        -0.1320
      2 C2          0.0021   -0.0041    0.0020 C.ar      1 <0>        -0.0472
      3 C3          0.0057   -0.6887   -1.1989 C.ar      1 <0>        -0.1094
      4 C4          0.0245   -2.0709   -1.2065 C.ar      1 <0>        -0.0788
      5 C5          0.0400   -2.7685   -0.0132 C.ar      1 <0>        -0.1586
      6 C6          0.0373   -2.0839    1.1877 C.ar      1 <0>        -0.1145
      7 C7          0.0229   -0.7016    1.1953 C.ar      1 <0>        -0.1086
      8 C8          0.0595   -4.2753   -0.0215 C.3       1 <0>         0.0915
      9 H1          0.4102   -4.6288   -0.9911 H         1 <0>         0.1510
     10 C9         -1.3530   -4.8050    0.2340 C.3       1 <0>        -0.0466
     11 C10        -1.3576   -6.3064    0.1042 C.2       1 <0>        -0.2121
     12 C11        -1.1466   -7.2458    1.0578 C.2       1 <0>        -0.1366
     13 C12        -1.1994   -8.5820    0.7063 C.2       1 <0>        -0.1537
     14 C13        -1.4610   -8.9124   -0.5831 C.2       1 <0>        -0.0994
     15 S1         -1.6502   -7.3085   -1.3440 S.3       1 <0>         0.1383
     16 Cl1        -1.5863  -10.4864   -1.3047 Cl        1 <0>         0.0421
     17 N1          0.9618   -4.7592    1.0319 N.4       1 <0>        -0.6367
     18 H2          1.0042    1.8801    0.0026 H         1 <0>         0.0831
     19 H3         -0.5455    1.8639   -0.8728 H         1 <0>         0.0771
     20 H4         -0.5286    1.8543    0.9071 H         1 <0>         0.0762
     21 H5         -0.0064   -0.1436   -2.1312 H         1 <0>         0.1378
     22 H6          0.0266   -2.6057   -2.1448 H         1 <0>         0.1355
     23 H7          0.0491   -2.6289    2.1200 H         1 <0>         0.1213
     24 H8          0.0245   -0.1667    2.1335 H         1 <0>         0.1361
     25 H9         -1.6693   -4.5262    1.2391 H         1 <0>         0.1138
     26 H10        -2.0397   -4.3752   -0.4953 H         1 <0>         0.1294
     27 H11        -0.9398   -6.9550    2.0771 H         1 <0>         0.1428
     28 H12        -1.0346   -9.3508    1.4468 H         1 <0>         0.1517
     29 H13         0.6371   -4.4319    1.9294 H         1 <0>         0.4309
     30 H14         0.9748   -5.7681    1.0263 H         1 <0>         0.4352
     31 H15         1.8933   -4.4099    0.8634 H         1 <0>         0.4403
@<TRIPOS>BOND
     1    1    2 1
     2    1   18 1
     3    1   19 1
     4    1   20 1
     5    2    7 ar
     6    2    3 ar
     7    3    4 ar
     8    3   21 1
     9    4    5 ar
    10    4   22 1
    11    5    6 ar
    12    5    8 1
    13    6    7 ar
    14    6   23 1
    15    7   24 1
    16    8    9 1
    17    8   10 1
    18    8   17 1
    19   10   11 1
    20   10   25 1
    21   10   26 1
    22   11   15 1
    23   11   12 2
    24   12   13 1
    25   12   27 1
    26   13   14 2
    27   13   28 1
    28   14   15 1
    29   14   16 1
    30   17   29 1
    31   17   30 1
    32   17   31 1
@<TRIPOS>MOLECULE
ZINC04159387
   41    43     0     0     0
SMALL
USER_CHARGES
1-(3,5-dimethyl-1-adamantyl)ethanamine
@<TRIPOS>ATOM
      1 C1         -0.7257    3.0957    3.7736 C.3       1 <0>        -0.1893
      2 C2         -1.4657    3.6025    2.5340 C.3       1 <0>         0.0386
      3 H1         -1.4805    4.6924    2.5400 H         1 <0>         0.1440
      4 C3         -0.7496    3.1091    1.2752 C.3       1 <0>        -0.0748
      5 C4         -0.7288    1.5792    1.2668 C.3       1 <0>        -0.1185
      6 C5         -0.0127    1.0858    0.0080 C.3       1 <0>        -0.0837
      7 C6         -0.7527    1.5927   -1.2315 C.3       1 <0>        -0.1091
      8 C7         -0.7734    3.1225   -1.2231 C.3       1 <0>        -0.0521
      9 C8         -1.4896    3.6159    0.0357 C.3       1 <0>        -0.1113
     10 C9          0.6619    3.6521   -1.2340 C.3       1 <0>        -0.1028
     11 C10         1.4019    3.1452    0.0056 C.3       1 <0>        -0.0546
     12 C11         1.4227    1.6154   -0.0028 C.3       1 <0>        -0.1084
     13 C12         0.6858    3.6387    1.2644 C.3       1 <0>        -0.0955
     14 C13         2.8373    3.6748   -0.0053 C.3       1 <0>        -0.1477
     15 C14        -1.5134    3.6293   -2.4626 C.3       1 <0>        -0.1483
     16 H2         -0.7110    2.0058    3.7676 H         1 <0>         0.0844
     17 H3          0.2969    3.4729    3.7658 H         1 <0>         0.1091
     18 H4         -1.2359    3.4472    4.6704 H         1 <0>         0.0828
     19 H5         -1.7514    1.2020    1.2746 H         1 <0>         0.0561
     20 H6         -0.2017    1.2182    2.1499 H         1 <0>         0.0820
     21 H7          0.0021   -0.0041    0.0020 H         1 <0>         0.0812
     22 H8         -0.2425    1.2411   -2.1283 H         1 <0>         0.0731
     23 H9         -1.7753    1.2154   -1.2238 H         1 <0>         0.0631
     24 H10        -1.5044    4.7058    0.0417 H         1 <0>         0.0793
     25 H11        -2.5122    3.2386    0.0434 H         1 <0>         0.0568
     26 H12         0.6472    4.7420   -1.2280 H         1 <0>         0.0671
     27 H13         1.1721    3.3005   -2.1308 H         1 <0>         0.0716
     28 H14         1.9499    1.2543    0.8802 H         1 <0>         0.0670
     29 H15         1.9329    1.2639   -0.8996 H         1 <0>         0.0717
     30 H16         1.2130    3.2776    2.1474 H         1 <0>         0.0771
     31 H17         0.6710    4.7285    1.2704 H         1 <0>         0.0742
     32 H18         3.3475    3.3233   -0.9021 H         1 <0>         0.0622
     33 H19         2.8225    4.7647    0.0007 H         1 <0>         0.0587
     34 H20         3.3645    3.3137    0.8778 H         1 <0>         0.0588
     35 H21        -1.0032    3.2778   -3.3594 H         1 <0>         0.0637
     36 H22        -2.5360    3.2520   -2.4549 H         1 <0>         0.0564
     37 H23        -1.5282    4.7192   -2.4566 H         1 <0>         0.0591
     38 H24        -3.3383    3.4064    3.3667 H         1 <0>         0.4373
     39 H25        -3.3343    3.3615    1.7042 H         1 <0>         0.4346
     40 N1         -2.8393    3.0691    2.5451 N.4       1 <0>        -0.6481
     41 H26        -2.8029    2.0434    2.5730 H         1 <0>         0.4345
@<TRIPOS>BOND
     1    1    2 1
     2    1   16 1
     3    1   17 1
     4    1   18 1
     5    2    3 1
     6    2    4 1
     7    2   40 1
     8    4    9 1
     9    4   13 1
    10    4    5 1
    11    5    6 1
    12    5   19 1
    13    5   20 1
    14    6   12 1
    15    6    7 1
    16    6   21 1
    17    7    8 1
    18    7   22 1
    19    7   23 1
    20    8    9 1
    21    8   10 1
    22    8   15 1
    23    9   24 1
    24    9   25 1
    25   10   11 1
    26   10   26 1
    27   10   27 1
    28   11   12 1
    29   11   13 1
    30   11   14 1
    31   12   28 1
    32   12   29 1
    33   13   30 1
    34   13   31 1
    35   14   32 1
    36   14   33 1
    37   14   34 1
    38   15   35 1
    39   15   36 1
    40   15   37 1
    41   38   40 1
    42   39   40 1
    43   40   41 1
@<TRIPOS>MOLECULE
ZINC36778800
   24    24     0     0     0
SMALL
USER_CHARGES

@<TRIPOS>ATOM
      1 C1         -0.0187    1.5258    0.0104 C.3       1 <0>        -0.1756
      2 C2          0.0021   -0.0041    0.0020 C.3       1 <0>        -0.1480
      3 C3          0.7182   -0.4975   -1.2568 C.3       1 <0>         0.0320
      4 H1          0.2444   -0.0644   -2.1377 H         1 <0>         0.1460
      5 C4          0.6303   -2.0233   -1.3286 C.3       1 <0>        -0.0518
      6 C5          1.2271   -2.5002   -2.6276 C.2       1 <0>        -0.2075
      7 C6          2.5076   -2.8517   -2.9005 C.2       1 <0>        -0.1318
      8 C7          2.8314   -3.2640   -4.1799 C.2       1 <0>        -0.1422
      9 C8          1.8584   -3.3045   -5.1233 C.2       1 <0>        -0.1149
     10 S1          0.4295   -2.7564   -4.2041 S.3       1 <0>         0.1300
     11 Br1         4.6045   -3.7633   -4.6075 Br        1 <0>        -0.0133
     12 N1          2.1288   -0.0900   -1.2092 N.4       1 <0>        -0.6388
     13 H2          1.0039    1.9031    0.0027 H         1 <0>         0.0527
     14 H3         -0.5459    1.8868   -0.8726 H         1 <0>         0.0736
     15 H4         -0.5289    1.8773    0.9072 H         1 <0>         0.0859
     16 H5          0.5293   -0.3651    0.8851 H         1 <0>         0.0926
     17 H6         -1.0205   -0.3814    0.0098 H         1 <0>         0.1156
     18 H7          1.1806   -2.4586   -0.4944 H         1 <0>         0.1137
     19 H8         -0.4142   -2.3300   -1.2744 H         1 <0>         0.1301
     20 H9          3.2635   -2.8099   -2.1302 H         1 <0>         0.1437
     21 H10         1.9287   -3.5970   -6.1606 H         1 <0>         0.2047
     22 H11         2.5674   -0.4909   -0.3938 H         1 <0>         0.4333
     23 H12         2.6010   -0.4154   -2.0394 H         1 <0>         0.4335
     24 H13         2.1867    0.9163   -1.1619 H         1 <0>         0.4364
@<TRIPOS>BOND
     1    1    2 1
     2    1   13 1
     3    1   14 1
     4    1   15 1
     5    2    3 1
     6    2   16 1
     7    2   17 1
     8    3    4 1
     9    3    5 1
    10    3   12 1
    11    5    6 1
    12    5   18 1
    13    5   19 1
    14    6   10 1
    15    6    7 2
    16    7    8 1
    17    7   20 1
    18    8    9 2
    19    8   11 1
    20    9   10 1
    21    9   21 1
    22   12   22 1
    23   12   23 1
    24   12   24 1
@<TRIPOS>MOLECULE
ZINC38130325
   38    40     0     0     0
SMALL
USER_CHARGES

@<TRIPOS>ATOM
      1 C1         -0.0184    1.5028    0.0103 C.3       1 <0>        -0.1287
      2 C2          0.0021   -0.0041    0.0020 C.ar      1 <0>        -0.0627
      3 C3          0.0057   -0.6887   -1.1989 C.ar      1 <0>        -0.1109
      4 C4          0.0245   -2.0709   -1.2065 C.ar      1 <0>        -0.1351
      5 C5          0.0400   -2.7685   -0.0132 C.ar      1 <0>        -0.1378
      6 C6          0.0373   -2.0839    1.1877 C.ar      1 <0>        -0.0973
      7 C7          0.0229   -0.7016    1.1953 C.ar      1 <0>        -0.1092
      8 C8          0.0595   -4.2753   -0.0215 C.3       1 <0>        -0.0941
      9 C9          1.5084   -4.7666   -0.0322 C.3       1 <0>         0.1500
     10 H1          2.0464   -4.3296    0.8090 H         1 <0>         0.1585
     11 C10         1.5303   -6.2690    0.0834 C.2       1 <0>        -0.2709
     12 C11         1.7535   -7.0350    1.1712 C.2       1 <0>        -0.0543
     13 C12         1.7298   -8.4353    1.0641 C.2       1 <0>        -0.1582
     14 C13         1.4786   -8.9427   -0.1673 C.2       1 <0>        -0.1200
     15 S1          1.2598   -7.4986   -1.1817 S.3       1 <0>         0.0940
     16 C14         1.4833  -10.4438   -0.1738 C.3       1 <0>        -0.0502
     17 C15         2.1959  -10.8367    1.1393 C.3       1 <0>        -0.1173
     18 C16         1.9208   -9.6085    2.0287 C.3       1 <0>        -0.0648
     19 N1          2.1531   -4.3627   -1.2888 N.4       1 <0>        -0.6381
     20 H2          1.0042    1.8801    0.0026 H         1 <0>         0.0793
     21 H3         -0.5455    1.8639   -0.8728 H         1 <0>         0.0739
     22 H4         -0.5286    1.8543    0.9071 H         1 <0>         0.0744
     23 H5         -0.0064   -0.1436   -2.1312 H         1 <0>         0.1318
     24 H6          0.0266   -2.6057   -2.1448 H         1 <0>         0.1222
     25 H7          0.0491   -2.6289    2.1200 H         1 <0>         0.1302
     26 H8          0.0245   -0.1667    2.1335 H         1 <0>         0.1323
     27 H9         -0.4447   -4.6501    0.8693 H         1 <0>         0.1230
     28 H10        -0.4546   -4.6404   -0.9106 H         1 <0>         0.0995
     29 H11         1.9512   -6.5707    2.1260 H         1 <0>         0.1407
     30 H12         0.4629  -10.8270   -0.1820 H         1 <0>         0.0987
     31 H13         2.0379  -10.8185   -1.0341 H         1 <0>         0.0898
     32 H14         1.7538  -11.7358    1.5687 H         1 <0>         0.0927
     33 H15         3.2657  -10.9692    0.9776 H         1 <0>         0.0818
     34 H16         2.7701   -9.4214    2.6858 H         1 <0>         0.0807
     35 H17         1.0161   -9.7640    2.6164 H         1 <0>         0.0865
     36 H18         2.1385   -3.3568   -1.3662 H         1 <0>         0.4390
     37 H19         3.1087   -4.6867   -1.2959 H         1 <0>         0.4399
     38 H20         1.6551   -4.7672   -2.0676 H         1 <0>         0.4309
@<TRIPOS>BOND
     1    1    2 1
     2    1   20 1
     3    1   21 1
     4    1   22 1
     5    2    7 ar
     6    2    3 ar
     7    3    4 ar
     8    3   23 1
     9    4    5 ar
    10    4   24 1
    11    5    6 ar
    12    5    8 1
    13    6    7 ar
    14    6   25 1
    15    7   26 1
    16    8    9 1
    17    8   27 1
    18    8   28 1
    19    9   10 1
    20    9   11 1
    21    9   19 1
    22   11   15 1
    23   11   12 2
    24   12   13 1
    25   12   29 1
    26   13   18 1
    27   13   14 2
    28   14   15 1
    29   14   16 1
    30   16   17 1
    31   16   30 1
    32   16   31 1
    33   17   18 1
    34   17   32 1
    35   17   33 1
    36   18   34 1
    37   18   35 1
    38   19   36 1
    39   19   37 1
    40   19   38 1
@<TRIPOS>MOLECULE
ZINC41730133
   48    50     0     0     0
SMALL
USER_CHARGES

@<TRIPOS>ATOM
      1 C1         -0.0472    1.6094    0.3133 C.3       1 <0>        -0.1500
      2 C2         -0.0293    0.0848    0.1858 C.3       1 <0>        -0.1116
      3 H1         -1.0519   -0.2925    0.1935 H         1 <0>         0.0855
      4 C3          0.6497   -0.3092   -1.1274 C.3       1 <0>        -0.1227
      5 C4          0.6676   -1.8338   -1.2549 C.3       1 <0>        -0.1431
      6 C5          1.4419   -2.4347   -0.0801 C.3       1 <0>        -0.1285
      7 C6          0.7628   -2.0407    1.2331 C.3       1 <0>         0.1273
      8 H2          1.3144   -2.4689    2.0701 H         1 <0>         0.1027
      9 C7          0.7449   -0.5162    1.3606 C.3       1 <0>        -0.1255
     10 N1         -0.6116   -2.5478    1.2435 N.pl3     1 <0>        -0.4120
     11 C8         -1.5859   -2.2262    0.3424 C.2       1 <0>        -0.0012
     12 C9         -2.7120   -2.8912    0.6806 C.2       1 <0>        -0.2014
     13 C10        -2.4214   -3.6463    1.8262 C.2       1 <0>        -0.2457
     14 C11        -1.1270   -3.4206    2.1477 C.2       1 <0>         0.0783
     15 C12        -0.4272   -4.0537    3.3251 C.3       1 <0>        -0.0567
     16 C13        -1.4910   -4.6173    4.2750 C.3       1 <0>        -0.0430
     17 C14        -2.4826   -5.4735    3.4826 C.3       1 <0>        -0.1331
     18 C15        -3.3411   -4.5618    2.5932 C.3       1 <0>         0.1183
     19 H3         -4.0206   -3.9700    3.2064 H         1 <0>         0.1432
     20 N2         -4.1126   -5.3877    1.6547 N.4       1 <0>        -0.6337
     21 C16        -2.2374   -3.4630    4.9469 C.3       1 <0>        -0.1576
     22 C17        -0.8151   -5.4781    5.3442 C.3       1 <0>        -0.1491
     23 H4          0.9754    1.9867    0.3056 H         1 <0>         0.0581
     24 H5         -0.5988    2.0375   -0.5237 H         1 <0>         0.0599
     25 H6         -0.5310    1.8901    1.2489 H         1 <0>         0.0559
     26 H7          0.0981    0.1190   -1.9644 H         1 <0>         0.0701
     27 H8          1.6723    0.0681   -1.1352 H         1 <0>         0.0696
     28 H9         -0.3550   -2.2110   -1.2472 H         1 <0>         0.0781
     29 H10         1.1514   -2.1145   -2.1905 H         1 <0>         0.0728
     30 H11         1.4546   -3.5209   -0.1709 H         1 <0>         0.0705
     31 H12         2.4645   -2.0575   -0.0878 H         1 <0>         0.0889
     32 H13         1.7675   -0.1389    1.3529 H         1 <0>         0.0888
     33 H14         0.2611   -0.2355    2.2962 H         1 <0>         0.0719
     34 H15        -1.4752   -1.5550   -0.4963 H         1 <0>         0.1894
     35 H16        -3.6600   -2.8489    0.1649 H         1 <0>         0.1399
     36 H17         0.2189   -4.8600    2.9779 H         1 <0>         0.0881
     37 H18         0.1685   -3.3033    3.8449 H         1 <0>         0.0858
     38 H19        -1.9353   -6.1833    2.8624 H         1 <0>         0.0886
     39 H20        -3.1274   -6.0163    4.1737 H         1 <0>         0.0935
     40 H21        -3.4806   -5.9404    1.0951 H         1 <0>         0.4323
     41 H22        -4.7270   -5.9991    2.1712 H         1 <0>         0.4327
     42 H23        -2.7186   -2.8493    4.1854 H         1 <0>         0.0634
     43 H24        -2.9935   -3.8634    5.6222 H         1 <0>         0.0641
     44 H25        -1.5317   -2.8539    5.5119 H         1 <0>         0.0662
     45 H26        -0.1098   -4.8685    5.9090 H         1 <0>         0.0681
     46 H27        -1.5711   -5.8787    6.0195 H         1 <0>         0.0663
     47 H28        -0.2829   -6.3002    4.8658 H         1 <0>         0.0622
     48 H29        -4.6602   -4.7907    1.0531 H         1 <0>         0.4344
@<TRIPOS>BOND
     1    1    2 1
     2    1   23 1
     3    1   24 1
     4    1   25 1
     5    2    3 1
     6    2    9 1
     7    2    4 1
     8    4    5 1
     9    4   26 1
    10    4   27 1
    11    5    6 1
    12    5   28 1
    13    5   29 1
    14    6    7 1
    15    6   30 1
    16    6   31 1
    17    7    8 1
    18    7    9 1
    19    7   10 1
    20    9   32 1
    21    9   33 1
    22   10   14 1
    23   10   11 1
    24   11   12 2
    25   11   34 1
    26   12   13 1
    27   12   35 1
    28   13   18 1
    29   13   14 2
    30   14   15 1
    31   15   16 1
    32   15   36 1
    33   15   37 1
    34   16   17 1
    35   16   21 1
    36   16   22 1
    37   17   18 1
    38   17   38 1
    39   17   39 1
    40   18   19 1
    41   18   20 1
    42   20   40 1
    43   20   41 1
    44   20   48 1
    45   21   42 1
    46   21   43 1
    47   21   44 1
    48   22   45 1
    49   22   46 1
    50   22   47 1
@<TRIPOS>MOLECULE
ZINC50330514
   31    33     0     0     0
SMALL
USER_CHARGES

@<TRIPOS>ATOM
      1 C1         -0.0184    1.5028    0.0103 C.3       1 <0>        -0.0852
      2 C2          0.0021   -0.0041    0.0020 C.2       1 <0>        -0.0812
      3 C3         -1.0430   -0.8722    0.0018 C.2       1 <0>        -0.1862
      4 C4         -0.7916   -2.2252   -0.0074 C.2       1 <0>        -0.0420
      5 C5          0.5122   -2.6528   -0.0161 C.2       1 <0>        -0.1650
      6 S1          1.4057   -1.1070   -0.0179 S.3       1 <0>         0.1051
      7 C6          1.0373   -4.0273   -0.0262 C.2       1 <0>         0.2871
      8 N1          0.3816   -5.1788   -0.0354 N.2       1 <0>        -0.5156
      9 C7          1.0039   -6.3512   -0.0445 C.2       1 <0>         0.1646
     10 C8          2.3663   -6.3315   -0.0449 C.2       1 <0>        -0.3237
     11 S2          2.7341   -4.5960   -0.0375 S.3       1 <0>         0.0244
     12 C9          3.3005   -7.4934   -0.0562 C.3       1 <0>         0.1452
     13 H1          3.7412   -7.6202    0.9326 H         1 <0>         0.1550
     14 C10         2.5010   -8.7510   -0.4324 C.3       1 <0>        -0.1367
     15 C11         1.2193   -8.7853    0.4050 C.3       1 <0>        -0.1167
     16 C12         0.2619   -7.6849   -0.0533 C.3       1 <0>        -0.0620
     17 N2          4.3619   -7.2659   -1.0460 N.4       1 <0>        -0.6369
     18 H2          1.0042    1.8801    0.0026 H         1 <0>         0.0810
     19 H3         -0.5455    1.8639   -0.8728 H         1 <0>         0.0954
     20 H4         -0.5286    1.8543    0.9071 H         1 <0>         0.0957
     21 H5         -2.0587   -0.5050    0.0090 H         1 <0>         0.1526
     22 H6         -1.6044   -2.9364   -0.0075 H         1 <0>         0.1499
     23 H7          2.2452   -8.7187   -1.4914 H         1 <0>         0.0939
     24 H8          3.0975   -9.6394   -0.2246 H         1 <0>         0.1059
     25 H9          0.7371   -9.7558    0.2881 H         1 <0>         0.1009
     26 H10         1.4694   -8.6323    1.4549 H         1 <0>         0.0815
     27 H11        -0.5888   -7.6341    0.6264 H         1 <0>         0.1026
     28 H12        -0.0872   -7.9021   -1.0628 H         1 <0>         0.0994
     29 H13         4.8719   -6.4291   -0.8058 H         1 <0>         0.4342
     30 H14         4.9919   -8.0541   -1.0508 H         1 <0>         0.4410
     31 H15         3.9509   -7.1583   -1.9612 H         1 <0>         0.4359
@<TRIPOS>BOND
     1    1    2 1
     2    1   18 1
     3    1   19 1
     4    1   20 1
     5    2    6 1
     6    2    3 2
     7    3    4 1
     8    3   21 1
     9    4    5 2
    10    4   22 1
    11    5    6 1
    12    5    7 1
    13    7   11 1
    14    7    8 2
    15    8    9 1
    16    9   16 1
    17    9   10 2
    18   10   11 1
    19   10   12 1
    20   12   13 1
    21   12   14 1
    22   12   17 1
    23   14   15 1
    24   14   23 1
    25   14   24 1
    26   15   16 1
    27   15   25 1
    28   15   26 1
    29   16   27 1
    30   16   28 1
    31   17   29 1
    32   17   30 1
    33   17   31 1
@<TRIPOS>MOLECULE
ZINC11629512
   30    30     0     0     0
SMALL
USER_CHARGES
(3S)-3-(4-fluoro-3-methyl-phenyl)butan-1-amine
@<TRIPOS>ATOM
      1 C1         -0.0653    5.3487    0.0319 C.3       1 <0>        -0.1220
      2 C2         -0.0469    3.8418    0.0231 C.ar      1 <0>        -0.1103
      3 C3          1.1583    3.1652    0.0080 C.ar      1 <0>        -0.0857
      4 C4          1.1755    1.7831    0.0004 C.ar      1 <0>        -0.1027
      5 C5         -0.0126    1.0758    0.0080 C.ar      1 <0>        -0.0933
      6 C6         -1.2186    1.7501    0.0173 C.ar      1 <0>        -0.1458
      7 C7         -1.2370    3.1347    0.0307 C.ar      1 <0>         0.1041
      8 F1         -2.4156    3.7950    0.0451 F         1 <0>        -0.1313
      9 C8          2.4901    1.0466   -0.0156 C.3       1 <0>        -0.0395
     10 H1          3.3094    1.7655   -0.0196 H         1 <0>         0.0910
     11 C9          2.5942    0.1618    1.2283 C.3       1 <0>        -0.1579
     12 C10         2.5708    0.1744   -1.2701 C.3       1 <0>        -0.1480
     13 C11         3.9532   -0.4764   -1.3507 C.3       1 <0>        -0.0088
     14 H2         -0.0793    5.7179   -0.9936 H         1 <0>         0.0786
     15 H3         -0.9548    5.6981    0.5561 H         1 <0>         0.0749
     16 H4          0.8250    5.7200    0.5396 H         1 <0>         0.0759
     17 H5          2.0869    3.7166    0.0025 H         1 <0>         0.1334
     18 H6          0.0021   -0.0041    0.0020 H         1 <0>         0.1294
     19 H7         -2.1465    1.1974    0.0187 H         1 <0>         0.1393
     20 H8          3.5451   -0.3709    1.2167 H         1 <0>         0.0595
     21 H9          2.5367    0.7831    2.1220 H         1 <0>         0.0714
     22 H10         1.7749   -0.5572    1.2323 H         1 <0>         0.0646
     23 H11         1.8063   -0.6012   -1.2232 H         1 <0>         0.0909
     24 H12         2.4080    0.7922   -2.1532 H         1 <0>         0.0911
     25 H13         4.7177    0.2992   -1.3976 H         1 <0>         0.1334
     26 H14         4.1160   -1.0941   -0.4676 H         1 <0>         0.1374
     27 H15         4.9349   -1.7550   -2.6312 H         1 <0>         0.4408
     28 H16         3.2912   -2.0002   -2.5665 H         1 <0>         0.4373
     29 N1          4.0273   -1.2961   -2.5730 N.4       1 <0>        -0.6473
     30 H17         3.9048   -0.6908   -3.3932 H         1 <0>         0.4397
@<TRIPOS>BOND
     1    1    2 1
     2    1   14 1
     3    1   15 1
     4    1   16 1
     5    2    7 ar
     6    2    3 ar
     7    3    4 ar
     8    3   17 1
     9    4    5 ar
    10    4    9 1
    11    5    6 ar
    12    5   18 1
    13    6    7 ar
    14    6   19 1
    15    7    8 1
    16    9   10 1
    17    9   11 1
    18    9   12 1
    19   11   20 1
    20   11   21 1
    21   11   22 1
    22   12   13 1
    23   12   23 1
    24   12   24 1
    25   13   25 1
    26   13   26 1
    27   13   29 1
    28   27   29 1
    29   28   29 1
    30   29   30 1
@<TRIPOS>MOLECULE
ZINC37381815
   19    20     0     0     0
SMALL
USER_CHARGES

@<TRIPOS>ATOM
      1 C1         -0.0163    1.3509    0.0095 C.2       1 <0>        -0.1041
      2 C2          1.1836    2.0381    0.0017 C.2       1 <0>        -0.1508
      3 C3          2.3434    1.3347   -0.0131 C.2       1 <0>        -0.0953
      4 S1          1.7533   -0.3502   -0.0166 S.3       1 <0>         0.1129
      5 C4          0.0021   -0.0041    0.0020 C.2       1 <0>        -0.1746
      6 C5         -1.1557   -0.9687    0.0079 C.3       1 <0>        -0.0287
      7 H1         -2.0887   -0.5859   -0.4058 H         1 <0>         0.1526
      8 C6         -0.8419   -2.4503   -0.2095 C.3       1 <0>        -0.1448
      9 C7         -1.2518   -1.9499    1.1779 C.3       1 <0>        -0.0738
     10 H2         -0.4776   -1.8977    1.9434 H         1 <0>         0.1827
     11 N1         -2.5944   -2.3043    1.6574 N.4       1 <0>        -0.6054
     12 Cl1         3.9774    1.9208   -0.0256 Cl        1 <0>         0.0406
     13 H3         -0.9542    1.8861    0.0257 H         1 <0>         0.1465
     14 H4          1.1971    3.1180    0.0070 H         1 <0>         0.1525
     15 H5         -1.5686   -3.0423   -0.7658 H         1 <0>         0.1365
     16 H6          0.2019   -2.7273   -0.3567 H         1 <0>         0.1356
     17 H7         -3.1174   -2.7314    0.9076 H         1 <0>         0.4347
     18 H8         -2.5166   -2.9538    2.4256 H         1 <0>         0.4436
     19 H9         -3.0713   -1.4713    1.9682 H         1 <0>         0.4393
@<TRIPOS>BOND
     1    1    5 2
     2    1    2 1
     3    1   13 1
     4    2    3 2
     5    2   14 1
     6    3    4 1
     7    3   12 1
     8    4    5 1
     9    5    6 1
    10    6    7 1
    11    6    9 1
    12    6    8 1
    13    8    9 1
    14    8   15 1
    15    8   16 1
    16    9   10 1
    17    9   11 1
    18   11   17 1
    19   11   18 1
    20   11   19 1
@<TRIPOS>MOLECULE
ZINC41212227
   37    38     0     0     0
SMALL
USER_CHARGES

@<TRIPOS>ATOM
      1 C1         -0.0187    1.5258    0.0104 C.3       1 <0>        -0.1634
      2 C2          0.0021   -0.0041    0.0020 C.3       1 <0>        -0.0363
      3 C3          0.7421   -0.5109    1.2415 C.3       1 <0>        -0.1633
      4 C4         -1.4333   -0.5336    0.0129 C.3       1 <0>        -0.0050
      5 N1         -2.1209   -0.0599    1.2215 N.4       1 <0>        -0.6392
      6 C5          0.7074   -0.4901   -1.2379 C.ar      1 <0>        -0.0935
      7 C6          0.0382   -1.2846   -2.1503 C.ar      1 <0>        -0.1310
      8 C7          0.6916   -1.7279   -3.2812 C.ar      1 <0>        -0.1102
      9 C8          2.0168   -1.3815   -3.5124 C.ar      1 <0>        -0.0612
     10 C9          2.6816   -0.5863   -2.6065 C.ar      1 <0>        -0.0620
     11 C10         2.0212   -0.1391   -1.4691 C.ar      1 <0>        -0.1052
     12 C11         4.1128   -0.1585   -2.8004 C.3       1 <0>        -0.0867
     13 C12         4.8051   -1.0494   -3.8298 C.3       1 <0>        -0.1231
     14 C13         3.9304   -1.1056   -5.0877 C.3       1 <0>        -0.1230
     15 C14         2.6711   -1.9068   -4.7634 C.3       1 <0>        -0.0889
     16 H1          1.0039    1.9031    0.0027 H         1 <0>         0.0866
     17 H2         -0.5459    1.8868   -0.8726 H         1 <0>         0.0762
     18 H3         -0.5289    1.8773    0.9072 H         1 <0>         0.0558
     19 H4          0.2319   -0.1594    2.1383 H         1 <0>         0.0558
     20 H5          0.7568   -1.6008    1.2356 H         1 <0>         0.0762
     21 H6          1.7647   -0.1336    1.2338 H         1 <0>         0.0865
     22 H7         -1.9605   -0.1726   -0.8702 H         1 <0>         0.1397
     23 H8         -1.4185   -1.6235    0.0069 H         1 <0>         0.1397
     24 H9         -1.6329   -0.3942    2.0389 H         1 <0>         0.4333
     25 H10        -2.1346    0.9490    1.2270 H         1 <0>         0.4333
     26 H11        -0.9925   -1.5574   -1.9779 H         1 <0>         0.1198
     27 H12         0.1686   -2.3498   -3.9928 H         1 <0>         0.1269
     28 H13         2.5422    0.4844   -0.7577 H         1 <0>         0.1233
     29 H14         4.1353    0.8748   -3.1464 H         1 <0>         0.0805
     30 H15         4.6413   -0.2302   -1.8497 H         1 <0>         0.0772
     31 H16         5.7807   -0.6321   -4.0795 H         1 <0>         0.0734
     32 H17         4.9280   -2.0532   -3.4230 H         1 <0>         0.0672
     33 H18         3.6550   -0.0949   -5.3887 H         1 <0>         0.0670
     34 H19         4.4781   -1.5931   -5.8942 H         1 <0>         0.0737
     35 H20         2.9387   -2.9533   -4.6169 H         1 <0>         0.0815
     36 H21         1.9711   -1.8285   -5.5952 H         1 <0>         0.0790
     37 H22        -3.0675   -0.4091    1.2287 H         1 <0>         0.4393
@<TRIPOS>BOND
     1    1    2 1
     2    1   16 1
     3    1   17 1
     4    1   18 1
     5    2    3 1
     6    2    4 1
     7    2    6 1
     8    3   19 1
     9    3   20 1
    10    3   21 1
    11    4    5 1
    12    4   22 1
    13    4   23 1
    14    5   24 1
    15    5   25 1
    16    5   37 1
    17    6   11 ar
    18    6    7 ar
    19    7    8 ar
    20    7   26 1
    21    8    9 ar
    22    8   27 1
    23    9   15 1
    24    9   10 ar
    25   10   11 ar
    26   10   12 1
    27   11   28 1
    28   12   13 1
    29   12   29 1
    30   12   30 1
    31   13   14 1
    32   13   31 1
    33   13   32 1
    34   14   15 1
    35   14   33 1
    36   14   34 1
    37   15   35 1
    38   15   36 1
@<TRIPOS>MOLECULE
ZINC49708567
   33    34     0     0     0
SMALL
USER_CHARGES

@<TRIPOS>ATOM
      1 C1         -0.0298    1.5110   -0.0077 C.3       1 <0>        -0.1756
      2 C2          0.0056   -0.0186   -0.0060 C.3       1 <0>         0.1531
      3 H1         -1.0126   -0.4077   -0.0028 H         1 <0>         0.1106
      4 C3          0.7417   -0.5167   -1.2538 C.3       1 <0>        -0.1547
      5 C4          2.2070   -0.0804   -1.1848 C.3       1 <0>         0.0246
      6 H2          2.2595    1.0061   -1.1155 H         1 <0>         0.1449
      7 C5          2.8688   -0.7025    0.0469 C.3       1 <0>        -0.1597
      8 C6          2.1568   -0.2066    1.3094 C.3       1 <0>         0.1231
      9 N1          0.7181   -0.4935    1.1880 N.pl3     1 <0>        -0.6315
     10 C7          0.0430   -1.2048    2.1846 C.ar      1 <0>         0.1963
     11 C8         -1.3337   -1.3710    2.1091 C.ar      1 <0>        -0.1639
     12 C9         -1.9985   -2.0744    3.0944 C.ar      1 <0>        -0.1034
     13 C10        -1.2933   -2.6138    4.1570 C.ar      1 <0>         0.0547
     14 C11         0.0794   -2.4494    4.2343 C.ar      1 <0>        -0.1036
     15 C12         0.7490   -1.7512    3.2484 C.ar      1 <0>        -0.1644
     16 F1         -1.9456   -3.3012    5.1199 F         1 <0>        -0.1385
     17 N2          2.9083   -0.5281   -2.3955 N.4       1 <0>        -0.6365
     18 H3          0.9891    1.8980   -0.0109 H         1 <0>         0.0577
     19 H4         -0.5544    1.8613   -0.8967 H         1 <0>         0.0741
     20 H5         -0.5495    1.8634    0.8833 H         1 <0>         0.0745
     21 H6          0.6876   -1.6044   -1.2981 H         1 <0>         0.0938
     22 H7          0.2772   -0.0922   -2.1438 H         1 <0>         0.1003
     23 H8          2.7947   -1.7885   -0.0097 H         1 <0>         0.0936
     24 H9          3.9183   -0.4103    0.0825 H         1 <0>         0.1000
     25 H10         2.5588   -0.7217    2.1818 H         1 <0>         0.1043
     26 H11         2.3070    0.8678    1.4154 H         1 <0>         0.0764
     27 H12        -1.8842   -0.9501    1.2807 H         1 <0>         0.1319
     28 H13        -3.0691   -2.2036    3.0363 H         1 <0>         0.1393
     29 H14         0.6274   -2.8707    5.0641 H         1 <0>         0.1392
     30 H15         1.8202   -1.6271    3.3068 H         1 <0>         0.1322
     31 H16         2.4729   -0.1174   -3.2077 H         1 <0>         0.4367
     32 H17         3.8744   -0.2406   -2.3502 H         1 <0>         0.4367
     33 H18         2.8594   -1.5338   -2.4601 H         1 <0>         0.4336
@<TRIPOS>BOND
     1    1    2 1
     2    1   18 1
     3    1   19 1
     4    1   20 1
     5    2    3 1
     6    2    9 1
     7    2    4 1
     8    4    5 1
     9    4   21 1
    10    4   22 1
    11    5    6 1
    12    5    7 1
    13    5   17 1
    14    7    8 1
    15    7   23 1
    16    7   24 1
    17    8    9 1
    18    8   25 1
    19    8   26 1
    20    9   10 1
    21   10   15 ar
    22   10   11 ar
    23   11   12 ar
    24   11   27 1
    25   12   13 ar
    26   12   28 1
    27   13   14 ar
    28   13   16 1
    29   14   15 ar
    30   14   29 1
    31   15   30 1
    32   17   31 1
    33   17   32 1
    34   17   33 1
@<TRIPOS>MOLECULE
ZINC54402374
   39    39     0     0     0
SMALL
USER_CHARGES

@<TRIPOS>ATOM
      1 C1         -0.0187    1.5258    0.0104 C.3       1 <0>        -0.1497
      2 C2          0.0021   -0.0041    0.0020 C.3       1 <0>        -0.0980
      3 C3         -1.4117   -0.5257    0.0127 C.ar      1 <0>        -0.0460
      4 C4         -2.0507   -0.7660    1.2147 C.ar      1 <0>        -0.1072
      5 C5         -3.3476   -1.2445    1.2246 C.ar      1 <0>        -0.0804
      6 C6         -4.0056   -1.4822    0.0324 C.ar      1 <0>        -0.1478
      7 C7         -3.3670   -1.2410   -1.1697 C.ar      1 <0>        -0.1171
      8 C8         -2.0716   -0.7585   -1.1795 C.ar      1 <0>        -0.1068
      9 C9         -5.4191   -2.0048    0.0431 C.3       1 <0>         0.0902
     10 H1         -5.6301   -2.4620    1.0098 H         1 <0>         0.1483
     11 C10        -6.3920   -0.8488   -0.1976 C.3       1 <0>        -0.0752
     12 C11        -6.2261    0.1960    0.9078 C.3       1 <0>        -0.1476
     13 C12        -6.0958   -0.2070   -1.5546 C.3       1 <0>        -0.1730
     14 C13        -7.8271   -1.3793   -0.1868 C.3       1 <0>        -0.1288
     15 C14        -8.8000   -0.2233   -0.4274 C.3       1 <0>        -0.1612
     16 N1         -5.5783   -3.0079   -1.0183 N.4       1 <0>        -0.6380
     17 H2          1.0039    1.9031    0.0027 H         1 <0>         0.0673
     18 H3         -0.5459    1.8868   -0.8726 H         1 <0>         0.0570
     19 H4         -0.5289    1.8773    0.9072 H         1 <0>         0.0579
     20 H5          0.5123   -0.3556   -0.8948 H         1 <0>         0.0796
     21 H6          0.5293   -0.3651    0.8851 H         1 <0>         0.0806
     22 H7         -1.5366   -0.5803    2.1462 H         1 <0>         0.1356
     23 H8         -3.8465   -1.4329    2.1637 H         1 <0>         0.1333
     24 H9         -3.8810   -1.4271   -2.1011 H         1 <0>         0.1200
     25 H10        -1.5739   -0.5665   -2.1185 H         1 <0>         0.1340
     26 H11        -5.2038    0.5739    0.9000 H         1 <0>         0.0707
     27 H12        -6.9193    1.0195    0.7363 H         1 <0>         0.0799
     28 H13        -6.4372   -0.2612    1.8745 H         1 <0>         0.0671
     29 H14        -6.2140   -0.9513   -2.3421 H         1 <0>         0.0496
     30 H15        -6.7890    0.6166   -1.7260 H         1 <0>         0.0880
     31 H16        -5.0735    0.1710   -1.5623 H         1 <0>         0.0810
     32 H17        -7.9452   -2.1236   -0.9743 H         1 <0>         0.0569
     33 H18        -8.0381   -1.8365    0.7799 H         1 <0>         0.0801
     34 H19        -9.8223   -0.6013   -0.4197 H         1 <0>         0.0660
     35 H20        -8.6818    0.5210    0.3601 H         1 <0>         0.0681
     36 H21        -8.5890    0.2339   -1.3941 H         1 <0>         0.0637
     37 H22        -5.3830   -2.5846   -1.9131 H         1 <0>         0.4291
     38 H23        -4.9367   -3.7702   -0.8595 H         1 <0>         0.4378
     39 H24        -6.5247   -3.3577   -1.0111 H         1 <0>         0.4349
@<TRIPOS>BOND
     1    1    2 1
     2    1   17 1
     3    1   18 1
     4    1   19 1
     5    2    3 1
     6    2   20 1
     7    2   21 1
     8    3    8 ar
     9    3    4 ar
    10    4    5 ar
    11    4   22 1
    12    5    6 ar
    13    5   23 1
    14    6    7 ar
    15    6    9 1
    16    7    8 ar
    17    7   24 1
    18    8   25 1
    19    9   10 1
    20    9   11 1
    21    9   16 1
    22   11   12 1
    23   11   13 1
    24   11   14 1
    25   12   26 1
    26   12   27 1
    27   12   28 1
    28   13   29 1
    29   13   30 1
    30   13   31 1
    31   14   15 1
    32   14   32 1
    33   14   33 1
    34   15   34 1
    35   15   35 1
    36   15   36 1
    37   16   37 1
    38   16   38 1
    39   16   39 1
@<TRIPOS>MOLECULE
ZINC05011999
   27    28     0     0     0
SMALL
USER_CHARGES
3-[(Z)-2-(4-pyridyl)vinyl]aniline
@<TRIPOS>ATOM
      1 C1         -1.1542    2.3672    2.2815 C.ar      1 <0>        -0.0714
      2 C2         -1.1286    3.6427    1.7557 C.ar      1 <0>        -0.1539
      3 C3         -0.1281    4.0047    0.8497 C.ar      1 <0>        -0.0192
      4 C4          0.8460    3.0732    0.4844 C.ar      1 <0>        -0.1880
      5 C5          0.8134    1.7966    1.0229 C.ar      1 <0>         0.2149
      6 C6         -0.1865    1.4472    1.9239 C.ar      1 <0>        -0.1930
      7 N1          1.7854    0.8608    0.6608 N.pl3     1 <0>        -0.8799
      8 C7         -0.1007    5.3648    0.2822 C.2       1 <0>        -0.0909
      9 C8         -1.2484    5.9752   -0.0539 C.2       1 <0>        -0.1170
     10 C9         -2.5138    5.2202   -0.0470 C.ar      1 <0>        -0.0114
     11 C10        -2.5589    3.8851   -0.4716 C.ar      1 <0>        -0.1452
     12 C11        -3.7640    3.2160   -0.4444 C.ar      1 <0>         0.0964
     13 N2         -4.8649    3.8182   -0.0356 N.ar      1 <0>        -0.4866
     14 C12        -4.8685    5.0746    0.3680 C.ar      1 <0>         0.0967
     15 C13        -3.7078    5.8186    0.3788 C.ar      1 <0>        -0.1687
     16 H1         -1.9306    2.0880    2.9784 H         1 <0>         0.1206
     17 H2         -1.8838    4.3600    2.0414 H         1 <0>         0.1165
     18 H3          1.6218    3.3464   -0.2156 H         1 <0>         0.1216
     19 H4         -0.2097    0.4519    2.3425 H         1 <0>         0.1192
     20 H5          1.7628   -0.0326    1.0380 H         1 <0>         0.3987
     21 H6          2.4829    1.1044    0.0323 H         1 <0>         0.3982
     22 H7          0.8425    5.8704    0.1368 H         1 <0>         0.1318
     23 H8         -1.2441    7.0195   -0.3292 H         1 <0>         0.1338
     24 H9         -1.6628    3.3872   -0.8114 H         1 <0>         0.1342
     25 H10        -3.8085    2.1858   -0.7656 H         1 <0>         0.1526
     26 H11        -5.7936    5.5265    0.6942 H         1 <0>         0.1548
     27 H12        -3.7183    6.8463    0.7104 H         1 <0>         0.1352
@<TRIPOS>BOND
     1    1    6 ar
     2    1    2 ar
     3    1   16 1
     4    2    3 ar
     5    2   17 1
     6    3    4 ar
     7    3    8 1
     8    4    5 ar
     9    4   18 1
    10    5    6 ar
    11    5    7 1
    12    6   19 1
    13    7   20 1
    14    7   21 1
    15    8    9 2
    16    8   22 1
    17    9   10 1
    18    9   23 1
    19   10   15 ar
    20   10   11 ar
    21   11   12 ar
    22   11   24 1
    23   12   13 ar
    24   12   25 1
    25   13   14 ar
    26   14   15 ar
    27   14   26 1
    28   15   27 1
@<TRIPOS>MOLECULE
ZINC32015502
   33    33     0     0     0
SMALL
USER_CHARGES
1-(2-chloro-4,6-dimethyl-anilino)-2-methyl-propan-2-ol
@<TRIPOS>ATOM
      1 C1          0.2117    3.5000    0.0698 C.3       1 <0>        -0.1167
      2 C2          0.4847    2.0181    0.0461 C.ar      1 <0>        -0.0777
      3 C3         -0.5665    1.1244   -0.0479 C.ar      1 <0>        -0.1143
      4 C4         -0.3204   -0.2344   -0.0704 C.ar      1 <0>        -0.0825
      5 C5          0.9848   -0.7037    0.0016 C.ar      1 <0>         0.1780
      6 C6          2.0393    0.1967    0.0961 C.ar      1 <0>        -0.0412
      7 C7          1.7856    1.5552    0.1181 C.ar      1 <0>        -0.1168
      8 Cl1         3.6727   -0.3841    0.1870 Cl        1 <0>        -0.0604
      9 N1          1.2372   -2.0780   -0.0214 N.pl3     1 <0>        -0.7883
     10 C8          1.3779   -2.6102    1.3406 C.3       1 <0>         0.1470
     11 C9          1.5236   -4.1321    1.2809 C.3       1 <0>         0.1296
     12 C10         1.5449   -4.6986    2.7020 C.3       1 <0>        -0.1803
     13 C11         0.3425   -4.7278    0.5121 C.3       1 <0>        -0.1748
     14 O1          2.7430   -4.4681    0.6158 O.3       1 <0>        -0.5812
     15 C12        -1.4669   -1.2070   -0.1735 C.3       1 <0>        -0.1145
     16 H1         -0.8724    3.6742    0.0039 H         1 <0>         0.0679
     17 H2          0.7127    3.9788   -0.7845 H         1 <0>         0.0719
     18 H3          0.5956    3.9286    1.0073 H         1 <0>         0.0719
     19 H4         -1.5811    1.4898   -0.1084 H         1 <0>         0.1261
     20 H5          2.6043    2.2558    0.1915 H         1 <0>         0.1299
     21 H6          1.3338   -2.7498   -0.8871 H         1 <0>         0.4325
     22 H7          2.2702   -2.1747    1.8141 H         1 <0>         0.0515
     23 H8          0.4862   -2.3500    1.9299 H         1 <0>         0.0567
     24 H9          1.6497   -5.7928    2.6590 H         1 <0>         0.0607
     25 H10         0.6063   -4.4399    3.2139 H         1 <0>         0.0644
     26 H11         2.3941   -4.2704    3.2547 H         1 <0>         0.0640
     27 H12         0.4473   -5.8220    0.4692 H         1 <0>         0.0562
     28 H13         0.3272   -4.3206   -0.5096 H         1 <0>         0.0647
     29 H14        -0.5961   -4.4691    1.0240 H         1 <0>         0.0638
     30 H15         3.0212   -5.5233    0.4771 H         1 <0>         0.4011
     31 H16        -1.0762   -2.2353   -0.1771 H         1 <0>         0.0766
     32 H17        -2.0217   -1.0223   -1.1052 H         1 <0>         0.0673
     33 H18        -2.1396   -1.0733    0.6865 H         1 <0>         0.0668
@<TRIPOS>BOND
     1    1    2 1
     2    1   16 1
     3    1   17 1
     4    1   18 1
     5    2    7 ar
     6    2    3 ar
     7    3    4 ar
     8    3   19 1
     9    4    5 ar
    10    4   15 1
    11    5    6 ar
    12    5    9 1
    13    6    7 ar
    14    6    8 1
    15    7   20 1
    16    9   10 1
    17    9   21 1
    18   10   11 1
    19   10   22 1
    20   10   23 1
    21   11   12 1
    22   11   13 1
    23   11   14 1
    24   12   24 1
    25   12   25 1
    26   12   26 1
    27   13   27 1
    28   13   28 1
    29   13   29 1
    30   14   30 1
    31   15   31 1
    32   15   32 1
    33   15   33 1
@<TRIPOS>MOLECULE
ZINC38039799
   32    33     0     0     0
SMALL
USER_CHARGES

@<TRIPOS>ATOM
      1 C1         -0.0167    1.3789    0.0096 C.ar      1 <0>        -0.2434
      2 C2          1.1761    2.0897    0.0021 C.ar      1 <0>         0.2693
      3 C3          2.3882    1.4127   -0.0136 C.ar      1 <0>        -0.2430
      4 C4          2.4082    0.0297   -0.0216 C.ar      1 <0>         0.1705
      5 C5          1.2148   -0.6821   -0.0136 C.ar      1 <0>         0.0377
      6 C6          0.0021   -0.0041    0.0020 C.ar      1 <0>         0.1692
      7 F1         -1.1585   -0.6955    0.0098 F         1 <0>        -0.1197
      8 N1          1.2344   -2.0854   -0.0222 N.pl3     1 <0>        -0.6540
      9 C7          1.2369   -2.7707   -1.2952 C.3       1 <0>         0.1497
     10 C8         -0.2210   -3.0211   -1.7533 C.3       1 <0>        -0.1460
     11 C9         -0.8483   -4.0566   -0.9179 C.3       1 <0>        -0.1101
     12 C10        -0.9744   -3.6837    0.5562 C.3       1 <0>        -0.1230
     13 C11         0.3121   -4.0203    1.2691 C.3       1 <0>        -0.1323
     14 C12         1.2577   -2.8007    1.2688 C.3       1 <0>         0.1455
     15 F2          3.5876   -0.6289   -0.0377 F         1 <0>        -0.1244
     16 N2          1.1565    3.4893    0.0097 N.pl3     1 <0>        -0.8669
     17 H1         -0.9592    1.9060    0.0259 H         1 <0>         0.1391
     18 H2          3.3157    1.9660   -0.0198 H         1 <0>         0.1395
     19 H3          1.7500   -2.1578   -2.0363 H         1 <0>         0.0592
     20 H4          1.7541   -3.7247   -1.1929 H         1 <0>         0.0661
     21 H5         -0.7900   -2.0953   -1.6682 H         1 <0>         0.0656
     22 H6         -0.2215   -3.3475   -2.7933 H         1 <0>         0.0631
     23 H7         -1.8448   -4.2607   -1.3097 H         1 <0>         0.0512
     24 H8         -0.2566   -4.9687   -0.9947 H         1 <0>         0.0533
     25 H9         -1.1708   -2.6152    0.6455 H         1 <0>         0.0796
     26 H10        -1.7955   -4.2434    1.0040 H         1 <0>         0.0551
     27 H11         0.0913   -4.3063    2.2974 H         1 <0>         0.0686
     28 H12         0.7997   -4.8524    0.7612 H         1 <0>         0.0625
     29 H13         2.2750   -3.1369    1.4689 H         1 <0>         0.0473
     30 H14         0.9515   -2.1150    2.0589 H         1 <0>         0.0619
     31 H15         0.3098    3.9625    0.0203 H         1 <0>         0.4043
     32 H16         1.9896    3.9861    0.0044 H         1 <0>         0.4044
@<TRIPOS>BOND
     1    1    6 ar
     2    1    2 ar
     3    1   17 1
     4    2    3 ar
     5    2   16 1
     6    3    4 ar
     7    3   18 1
     8    4    5 ar
     9    4   15 1
    10    5    6 ar
    11    5    8 1
    12    6    7 1
    13    8   14 1
    14    8    9 1
    15    9   10 1
    16    9   19 1
    17    9   20 1
    18   10   11 1
    19   10   21 1
    20   10   22 1
    21   11   12 1
    22   11   23 1
    23   11   24 1
    24   12   13 1
    25   12   25 1
    26   12   26 1
    27   13   14 1
    28   13   27 1
    29   13   28 1
    30   14   29 1
    31   14   30 1
    32   16   31 1
    33   16   32 1
@<TRIPOS>MOLECULE
ZINC42143731
   24    25     0     0     0
SMALL
USER_CHARGES

@<TRIPOS>ATOM
      1 C1          4.1636    0.0063    4.3222 C.ar      1 <0>        -0.1707
      2 C2          4.4793    0.9938    3.3975 C.ar      1 <0>        -0.0501
      3 C3          4.3701    0.6964    2.0507 C.ar      1 <0>        -0.0785
      4 C4          3.9496   -0.5760    1.6705 C.ar      1 <0>         0.1122
      5 N1          3.6579   -1.4898    2.5836 N.ar      1 <0>        -0.4658
      6 C5          3.7533   -1.2332    3.8746 C.ar      1 <0>         0.1168
      7 S1          3.8040   -0.9729   -0.0401 S.3       1 <0>         0.0574
      8 C6          3.4026   -2.6885   -0.0469 C.ar      1 <0>        -0.1933
      9 C7          2.0752   -3.0911   -0.1219 C.ar      1 <0>        -0.0060
     10 C8          1.7609   -4.4354   -0.1277 C.ar      1 <0>        -0.2075
     11 C9          2.7717   -5.3853   -0.0581 C.ar      1 <0>         0.2472
     12 C10         4.0989   -4.9830    0.0168 C.ar      1 <0>        -0.2074
     13 C11         4.4138   -3.6388    0.0169 C.ar      1 <0>        -0.0063
     14 N2          2.4528   -6.7481   -0.0631 N.pl3     1 <0>        -0.8733
     15 Cl1         4.7512    1.8924    0.8515 Cl        1 <0>        -0.0399
     16 H1          4.2427    0.2051    5.3807 H         1 <0>         0.1457
     17 H2          4.8024    1.9717    3.7226 H         1 <0>         0.1490
     18 H3          3.5070   -2.0035    4.5905 H         1 <0>         0.1636
     19 H4          1.2891   -2.3524   -0.1752 H         1 <0>         0.1283
     20 H5          0.7289   -4.7484   -0.1860 H         1 <0>         0.1255
     21 H6          4.8848   -5.7217    0.0712 H         1 <0>         0.1251
     22 H7          5.4462   -3.3260    0.0707 H         1 <0>         0.1265
     23 H8          1.5259   -7.0291   -0.1151 H         1 <0>         0.4008
     24 H9          3.1588   -7.4115   -0.0146 H         1 <0>         0.4007
@<TRIPOS>BOND
     1    1    6 ar
     2    1    2 ar
     3    1   16 1
     4    2    3 ar
     5    2   17 1
     6    3    4 ar
     7    3   15 1
     8    4    5 ar
     9    4    7 1
    10    5    6 ar
    11    6   18 1
    12    7    8 1
    13    8   13 ar
    14    8    9 ar
    15    9   10 ar
    16    9   19 1
    17   10   11 ar
    18   10   20 1
    19   11   12 ar
    20   11   14 1
    21   12   13 ar
    22   12   21 1
    23   13   22 1
    24   14   23 1
    25   14   24 1
@<TRIPOS>MOLECULE
ZINC60392667
   35    36     0     0     0
SMALL
USER_CHARGES

@<TRIPOS>ATOM
      1 C1         -0.0187    1.5258    0.0104 C.3       1 <0>        -0.1478
      2 C2          0.0021   -0.0041    0.0020 C.3       1 <0>        -0.0893
      3 H1         -1.0206   -0.3812    0.0098 H         1 <0>         0.0710
      4 C3          0.7178   -0.4973   -1.2575 C.3       1 <0>        -0.1299
      5 C4          0.7063   -2.0291   -1.2798 C.3       1 <0>         0.1468
      6 N1          1.2851   -2.5247   -0.0236 N.pl3     1 <0>        -0.6621
      7 C5          0.7301   -2.0426    1.2485 C.3       1 <0>         0.1728
      8 H2          1.3389   -2.4093    2.0750 H         1 <0>         0.0724
      9 C6          0.7417   -0.5108    1.2423 C.3       1 <0>        -0.1234
     10 C7         -0.7056   -2.5473    1.4058 C.3       1 <0>        -0.1690
     11 C8          2.3456   -3.4397   -0.0385 C.ar      1 <0>         0.1228
     12 C9          3.6566   -2.9829   -0.0429 C.ar      1 <0>        -0.0637
     13 C10         4.7024   -3.8849   -0.0577 C.ar      1 <0>        -0.1889
     14 C11         4.4430   -5.2491   -0.0681 C.ar      1 <0>         0.2238
     15 C12         3.1322   -5.7068   -0.0637 C.ar      1 <0>        -0.1899
     16 C13         2.0857   -4.8045   -0.0432 C.ar      1 <0>         0.0070
     17 Cl1         0.4465   -5.3762   -0.0298 Cl        1 <0>        -0.0627
     18 N2          5.5034   -6.1630   -0.0835 N.pl3     1 <0>        -0.8765
     19 H3          1.0039    1.9031    0.0027 H         1 <0>         0.0523
     20 H4         -0.5459    1.8868   -0.8726 H         1 <0>         0.0529
     21 H5         -0.5289    1.8773    0.9072 H         1 <0>         0.0530
     22 H6          0.2043   -0.1168   -2.1405 H         1 <0>         0.0652
     23 H7          1.7481   -0.1413   -1.2536 H         1 <0>         0.0625
     24 H8         -0.3194   -2.3854   -1.3752 H         1 <0>         0.0493
     25 H9          1.2993   -2.3867   -2.1216 H         1 <0>         0.0654
     26 H10         1.7717   -0.1546    1.2225 H         1 <0>         0.0624
     27 H11         0.2452   -0.1397    2.1389 H         1 <0>         0.0657
     28 H12        -0.7105   -3.6373    1.3982 H         1 <0>         0.0611
     29 H13        -1.1155   -2.1887    2.3500 H         1 <0>         0.0557
     30 H14        -1.3138   -2.1755    0.5811 H         1 <0>         0.0569
     31 H15         3.8588   -1.9220   -0.0352 H         1 <0>         0.1292
     32 H16         5.7221   -3.5292   -0.0615 H         1 <0>         0.1253
     33 H17         2.9306   -6.7678   -0.0722 H         1 <0>         0.1293
     34 H18         6.4192   -5.8433   -0.0869 H         1 <0>         0.4007
     35 H19         5.3224   -7.1159   -0.0908 H         1 <0>         0.3998
@<TRIPOS>BOND
     1    1    2 1
     2    1   19 1
     3    1   20 1
     4    1   21 1
     5    2    3 1
     6    2    9 1
     7    2    4 1
     8    4    5 1
     9    4   22 1
    10    4   23 1
    11    5    6 1
    12    5   24 1
    13    5   25 1
    14    6    7 1
    15    6   11 1
    16    7    8 1
    17    7    9 1
    18    7   10 1
    19    9   26 1
    20    9   27 1
    21   10   28 1
    22   10   29 1
    23   10   30 1
    24   11   16 ar
    25   11   12 ar
    26   12   13 ar
    27   12   31 1
    28   13   14 ar
    29   13   32 1
    30   14   15 ar
    31   14   18 1
    32   15   16 ar
    33   15   33 1
    34   16   17 1
    35   18   34 1
    36   18   35 1
@<TRIPOS>MOLECULE
ZINC04488007
   52    54     0     0     0
SMALL
USER_CHARGES
N-[[5-(3-chloro-4-methoxy-phenyl)-2-furyl]methyl]-3-morpholino-propan-1-amine
@<TRIPOS>ATOM
      1 C1         -0.0127    1.0858    0.0080 C.3       1 <0>         0.0187
      2 O1         -0.6816    1.5467    1.1837 O.3       1 <0>        -0.2947
      3 C2         -1.9750    1.1630    1.3482 C.ar      1 <0>         0.1731
      4 C3         -2.5869    0.3636    0.3923 C.ar      1 <0>        -0.1958
      5 C4         -3.8970   -0.0326    0.5580 C.ar      1 <0>        -0.0322
      6 C5         -4.6128    0.3808    1.6833 C.ar      1 <0>        -0.0898
      7 C6         -3.9964    1.1893    2.6399 C.ar      1 <0>        -0.0423
      8 C7         -2.6830    1.5765    2.4698 C.ar      1 <0>        -0.0760
      9 Cl1        -1.9147    2.5819    3.6583 Cl        1 <0>        -0.0342
     10 C8         -6.0192   -0.0369    1.8614 C.2       1 <0>         0.1222
     11 C9         -6.7332   -0.8189    1.0089 C.2       1 <0>        -0.2150
     12 C10        -8.0189   -0.9616    1.5691 C.2       1 <0>        -0.1154
     13 C11        -8.0256   -0.2670    2.7233 C.2       1 <0>        -0.1384
     14 O2         -6.8142    0.2864    2.8993 O.3       1 <0>        -0.1649
     15 C12        -9.1959   -0.1373    3.6638 C.3       1 <0>         0.1025
     16 C13       -10.2816   -1.1297    5.5871 C.3       1 <0>        -0.0006
     17 C14       -10.2032   -2.2756    6.5979 C.3       1 <0>        -0.1861
     18 C15       -11.3784   -2.1773    7.5726 C.3       1 <0>         0.0000
     19 C16       -11.5107   -4.5756    7.8850 C.3       1 <0>        -0.0441
     20 C17       -11.3650   -5.6951    8.9192 C.3       1 <0>         0.0329
     21 O3        -12.2912   -5.4748    9.9864 O.3       1 <0>        -0.3511
     22 C18       -12.1171   -4.2199   10.6500 C.3       1 <0>         0.0324
     23 C19       -12.2704   -3.0855    9.6333 C.3       1 <0>        -0.0386
     24 H1          0.0021   -0.0041    0.0020 H         1 <0>         0.0646
     25 H2          1.0099    1.4631    0.0003 H         1 <0>         0.1143
     26 H3         -0.5399    1.4469   -0.8751 H         1 <0>         0.0654
     27 H4         -2.0345    0.0479   -0.4804 H         1 <0>         0.1534
     28 H5         -4.3706   -0.6581   -0.1842 H         1 <0>         0.1427
     29 H6         -4.5467    1.5115    3.5115 H         1 <0>         0.1439
     30 H7         -6.3831   -1.2482    0.0818 H         1 <0>         0.1670
     31 H8         -8.8426   -1.5217    1.1518 H         1 <0>         0.1644
     32 H9         -9.1445    0.8226    4.1776 H         1 <0>         0.1487
     33 H10       -10.1254   -0.1971    3.0977 H         1 <0>         0.1600
     34 H11       -10.2378   -0.1766    6.1142 H         1 <0>         0.1448
     35 H12       -11.2187   -1.1964    5.0343 H         1 <0>         0.1450
     36 H13       -10.2470   -3.2287    6.0708 H         1 <0>         0.1110
     37 H14        -9.2661   -2.2089    7.1507 H         1 <0>         0.1120
     38 H15       -11.3345   -1.2242    8.0997 H         1 <0>         0.1429
     39 H16       -12.3155   -2.2439    7.0198 H         1 <0>         0.1437
     40 H17       -12.5103   -4.6083    7.4516 H         1 <0>         0.1449
     41 H18       -10.7678   -4.7079    7.0984 H         1 <0>         0.1369
     42 H19       -10.3489   -5.6963    9.3136 H         1 <0>         0.0829
     43 H20       -11.5744   -6.6554    8.4480 H         1 <0>         0.1451
     44 H21       -11.1229   -4.1782   11.0947 H         1 <0>         0.0841
     45 H22       -12.8705   -4.1133   11.4305 H         1 <0>         0.1476
     46 H23       -12.0821   -2.1301   10.1229 H         1 <0>         0.1452
     47 H24       -13.2822   -3.0943    9.2279 H         1 <0>         0.1449
     48 N1         -9.1457   -1.2317    4.6516 N.4       1 <0>        -0.5234
     49 H25        -8.2665   -1.1722    5.1787 H         1 <0>         0.4377
     50 H26        -9.1905   -2.1328    4.1614 H         1 <0>         0.4361
     51 N2        -11.2785   -3.2788    8.5545 N.4       1 <0>        -0.3971
     52 H27       -10.3363   -3.2775    8.9627 H         1 <0>         0.4291
@<TRIPOS>BOND
     1    1    2 1
     2    1   24 1
     3    1   25 1
     4    1   26 1
     5    2    3 1
     6    3    8 ar
     7    3    4 ar
     8    4    5 ar
     9    4   27 1
    10    5    6 ar
    11    5   28 1
    12    6    7 ar
    13    6   10 1
    14    7    8 ar
    15    7   29 1
    16    8    9 1
    17   10   14 1
    18   10   11 2
    19   11   12 1
    20   11   30 1
    21   12   13 2
    22   12   31 1
    23   13   14 1
    24   13   15 1
    25   15   32 1
    26   15   33 1
    27   15   48 1
    28   16   17 1
    29   16   34 1
    30   16   35 1
    31   16   48 1
    32   17   18 1
    33   17   36 1
    34   17   37 1
    35   18   38 1
    36   18   39 1
    37   18   51 1
    38   19   20 1
    39   19   40 1
    40   19   41 1
    41   19   51 1
    42   20   21 1
    43   20   42 1
    44   20   43 1
    45   21   22 1
    46   22   23 1
    47   22   44 1
    48   22   45 1
    49   23   46 1
    50   23   47 1
    51   23   51 1
    52   48   49 1
    53   48   50 1
    54   51   52 1
@<TRIPOS>MOLECULE
ZINC20349715
   60    62     0     0     0
SMALL
USER_CHARGES
(1R)-1-(1-ethyl-3-methyl-pyrazol-4-yl)-N-[[4-methoxy-3-(pyrrolidin-1-ylmethyl)phenyl]methyl]ethanamine
@<TRIPOS>ATOM
      1 C1          1.1955   -2.5658    1.1582 C.3       1 <0>        -0.1743
      2 C2          1.8060   -1.8119   -0.0249 C.3       1 <0>         0.1201
      3 N1          1.3385   -0.4236   -0.0130 N.pl3     1 <0>        -0.3441
      4 C3          2.1194    0.6771   -0.0145 C.2       1 <0>         0.0587
      5 C4          1.3069    1.7591   -0.0010 C.2       1 <0>        -0.2973
      6 C5         -0.0157    1.3042    0.0092 C.2       1 <0>         0.1075
      7 N2          0.0021   -0.0041    0.0020 N.2       1 <0>        -0.2624
      8 C6         -1.2483    2.1711    0.0200 C.3       1 <0>        -0.0939
      9 C7          1.7490    3.1998    0.0016 C.3       1 <0>         0.1329
     10 H1          1.0618    3.8002   -0.6126 H         1 <0>         0.1394
     11 C8          1.7918    3.7176    1.4407 C.3       1 <0>        -0.1785
     12 N3          3.0872    3.3024   -0.5957 N.4       1 <0>        -0.5391
     13 C9          3.3141    4.6431   -1.1516 C.3       1 <0>         0.0465
     14 C10         4.6938    4.7102   -1.7542 C.ar      1 <0>        -0.1909
     15 C11         5.7672    5.1081   -0.9784 C.ar      1 <0>        -0.0217
     16 C12         7.0337    5.1649   -1.5268 C.ar      1 <0>        -0.1986
     17 C13         7.2265    4.8332   -2.8602 C.ar      1 <0>         0.1834
     18 C14         6.1473    4.4398   -3.6377 C.ar      1 <0>        -0.1834
     19 C15         4.8833    4.3791   -3.0829 C.ar      1 <0>        -0.0302
     20 C16         6.3532    4.0783   -5.0861 C.3       1 <0>         0.0480
     21 N4          6.8735    2.7077   -5.1796 N.4       1 <0>        -0.4106
     22 C17         6.0153    1.7599   -4.4236 C.3       1 <0>         0.0000
     23 C18         6.3723    0.3860   -5.0444 C.3       1 <0>        -0.1435
     24 C19         6.5622    0.7218   -6.5414 C.3       1 <0>        -0.1437
     25 C20         6.8639    2.2315   -6.5798 C.3       1 <0>        -0.0015
     26 O1          8.4708    4.8932   -3.4034 O.3       1 <0>        -0.3188
     27 C21         9.5348    5.3066   -2.5437 C.3       1 <0>         0.0138
     28 H2          1.5466   -3.6082    1.1492 H         1 <0>         0.0880
     29 H3          0.0986   -2.5476    1.0779 H         1 <0>         0.0776
     30 H4          1.5025   -2.0836    2.0980 H         1 <0>         0.0640
     31 H5          2.9029   -1.8301    0.0554 H         1 <0>         0.1022
     32 H6          1.4991   -2.2941   -0.9647 H         1 <0>         0.0981
     33 H7          3.1992    0.6917   -0.0248 H         1 <0>         0.1699
     34 H8         -2.1448    1.5337    0.0266 H         1 <0>         0.0875
     35 H9         -1.2571    2.8071   -0.8775 H         1 <0>         0.0844
     36 H10        -1.2427    2.8053    0.9188 H         1 <0>         0.0871
     37 H11         2.1145    4.7692    1.4425 H         1 <0>         0.0812
     38 H12         2.5019    3.1151    2.0262 H         1 <0>         0.0817
     39 H13         0.7898    3.6407    1.8880 H         1 <0>         0.1089
     40 H14         3.8483    3.1062    0.1739 H         1 <0>         0.4443
     41 H15         2.5639    4.8494   -1.9292 H         1 <0>         0.1397
     42 H16         3.2271    5.3918   -0.3504 H         1 <0>         0.1425
     43 H17         5.6159    5.3704    0.0583 H         1 <0>         0.1468
     44 H18         7.8724    5.4715   -0.9193 H         1 <0>         0.1524
     45 H19         4.0426    4.0732   -3.6880 H         1 <0>         0.1454
     46 H20         5.3938    4.1435   -5.6202 H         1 <0>         0.1351
     47 H21         7.0733    4.7755   -5.5393 H         1 <0>         0.1444
     48 H22         6.2626    1.8152   -3.3532 H         1 <0>         0.1218
     49 H23         4.9580    2.0259   -4.5698 H         1 <0>         0.1237
     50 H24         7.2904    0.0000   -4.5773 H         1 <0>         0.0983
     51 H25         5.5474   -0.3205   -4.8703 H         1 <0>         0.1140
     52 H26         7.3975    0.1316   -6.9464 H         1 <0>         0.1096
     53 H27         5.6410    0.4790   -7.0914 H         1 <0>         0.1066
     54 H28         6.0873    2.7683   -7.1443 H         1 <0>         0.1312
     55 H29         7.8462    2.4196   -7.0378 H         1 <0>         0.1353
     56 H30        10.4800    5.3112   -3.1063 H         1 <0>         0.1227
     57 H31         9.6150    4.6082   -1.6977 H         1 <0>         0.0711
     58 H32         9.3283    6.3187   -2.1654 H         1 <0>         0.0740
     59 H33         3.1852    2.5638   -1.4049 H         1 <0>         0.4406
     60 H34         7.8953    2.7470   -4.7742 H         1 <0>         0.4522
@<TRIPOS>BOND
     1    1    2 1
     2    1   28 1
     3    1   29 1
     4    1   30 1
     5    2    3 1
     6    2   31 1
     7    2   32 1
     8    3    7 1
     9    3    4 1
    10    4    5 2
    11    4   33 1
    12    5    6 1
    13    5    9 1
    14    6    7 2
    15    6    8 1
    16    8   34 1
    17    8   35 1
    18    8   36 1
    19    9   10 1
    20    9   11 1
    21    9   12 1
    22   11   37 1
    23   11   38 1
    24   11   39 1
    25   12   13 1
    26   12   40 1
    27   12   59 1
    28   13   14 1
    29   13   41 1
    30   13   42 1
    31   14   19 ar
    32   14   15 ar
    33   15   16 ar
    34   15   43 1
    35   16   17 ar
    36   16   44 1
    37   17   18 ar
    38   17   26 1
    39   18   19 ar
    40   18   20 1
    41   19   45 1
    42   20   21 1
    43   20   46 1
    44   20   47 1
    45   21   25 1
    46   21   22 1
    47   21   60 1
    48   22   23 1
    49   22   48 1
    50   22   49 1
    51   23   24 1
    52   23   50 1
    53   23   51 1
    54   24   25 1
    55   24   52 1
    56   24   53 1
    57   25   54 1
    58   25   55 1
    59   26   27 1
    60   27   56 1
    61   27   57 1
    62   27   58 1
@<TRIPOS>MOLECULE
ZINC55197051
   61    63     0     0     0
SMALL
USER_CHARGES

@<TRIPOS>ATOM
      1 C1         -0.8506    1.0783   -0.6077 C.3       1 <0>        -0.1347
      2 C2         -0.4178   -0.3516   -0.4096 C.ar      1 <0>        -0.0642
      3 C3         -0.0537   -1.1209   -1.4992 C.ar      1 <0>        -0.0568
      4 C4          0.3432   -2.4323   -1.3175 C.ar      1 <0>        -0.1513
      5 C5          0.3767   -2.9746   -0.0462 C.ar      1 <0>        -0.0530
      6 C6          0.0136   -2.2053    1.0431 C.ar      1 <0>        -0.1412
      7 C7         -0.3794   -0.8922    0.8618 C.ar      1 <0>        -0.0584
      8 C8          0.0496   -2.7966    2.4288 C.3       1 <0>         0.0345
      9 N1         -1.1530   -3.6120    2.6446 N.4       1 <0>        -0.3823
     10 C9         -2.3378   -2.7455    2.6371 C.3       1 <0>        -0.0116
     11 C10        -3.5996   -3.5991    2.7805 C.3       1 <0>        -0.1406
     12 C11        -3.5391   -4.3721    4.1010 C.3       1 <0>        -0.1056
     13 C12        -2.2614   -5.2159    4.1291 C.3       1 <0>        -0.1431
     14 C13        -1.0491   -4.3024    3.9358 C.3       1 <0>        -0.0104
     15 C14        -4.7595   -5.2879    4.2142 C.3       1 <0>        -0.1554
     16 C15         0.8086   -4.4048    0.1518 C.3       1 <0>        -0.1370
     17 C16         0.7391   -3.2711   -2.5052 C.3       1 <0>         0.0395
     18 N2         -0.3819   -4.1408   -2.8860 N.4       1 <0>        -0.5062
     19 C17         0.0040   -4.9585   -4.0437 C.3       1 <0>        -0.0292
     20 C18        -1.1636   -5.8642   -4.4403 C.3       1 <0>         0.1467
     21 H1         -1.4764   -6.4525   -3.5776 H         1 <0>         0.1235
     22 C19        -2.3341   -5.0054   -4.9234 C.3       1 <0>        -0.1916
     23 N3         -0.7405   -6.7632   -5.5169 N.pl3     1 <0>        -0.4015
     24 C20        -0.7310   -6.4944   -6.8340 C.2       1 <0>         0.2656
     25 N4         -0.2853   -7.5525   -7.4611 N.2       1 <0>        -0.5213
     26 C21        -0.0011   -8.5126   -6.5821 C.2       1 <0>         0.2296
     27 N5         -0.2584   -8.0749   -5.3776 N.2       1 <0>        -0.3183
     28 H2          0.0198    1.7322   -0.5535 H         1 <0>         0.0907
     29 H3         -1.3233    1.1828   -1.5843 H         1 <0>         0.0813
     30 H4         -1.5613    1.3540    0.1713 H         1 <0>         0.0809
     31 H5         -0.0799   -0.6973   -2.4923 H         1 <0>         0.1470
     32 H6         -0.6595   -0.2899    1.7134 H         1 <0>         0.1460
     33 H7          0.9362   -3.4218    2.5341 H         1 <0>         0.1427
     34 H8          0.0815   -1.9939    3.1656 H         1 <0>         0.1449
     35 H9         -2.2786   -2.0428    3.4683 H         1 <0>         0.1332
     36 H10        -2.3777   -2.1936    1.6980 H         1 <0>         0.1254
     37 H11        -4.4780   -2.9537    2.7765 H         1 <0>         0.1148
     38 H12        -3.6599   -4.3020    1.9496 H         1 <0>         0.0839
     39 H13        -3.5304   -3.6697    4.9345 H         1 <0>         0.0921
     40 H14        -2.1832   -5.7261    5.0891 H         1 <0>         0.1179
     41 H15        -2.2938   -5.9524    3.3263 H         1 <0>         0.0865
     42 H16        -0.1376   -4.8999    3.9554 H         1 <0>         0.1329
     43 H17        -1.0174   -3.5665    4.7392 H         1 <0>         0.1347
     44 H18        -4.7642   -5.9916    3.3818 H         1 <0>         0.0607
     45 H19        -4.7153   -5.8376    5.1545 H         1 <0>         0.0709
     46 H20        -5.6685   -4.6869    4.1871 H         1 <0>         0.0695
     47 H21         1.8958   -4.4506    0.2151 H         1 <0>         0.1086
     48 H22         0.3743   -4.7911    1.0739 H         1 <0>         0.0674
     49 H23         0.4680   -5.0071   -0.6905 H         1 <0>         0.0644
     50 H24         0.9939   -2.6198   -3.3413 H         1 <0>         0.1505
     51 H25         1.6024   -3.8839   -2.2457 H         1 <0>         0.1459
     52 H26        -0.6178   -4.7437   -2.1120 H         1 <0>         0.4220
     53 H27         0.2588   -4.3072   -4.8798 H         1 <0>         0.1472
     54 H28         0.8673   -5.5712   -3.7842 H         1 <0>         0.1457
     55 H29        -2.0213   -4.4172   -5.7861 H         1 <0>         0.0896
     56 H30        -3.1659   -5.6507   -5.2059 H         1 <0>         0.1009
     57 H31        -2.6489   -4.3366   -4.1224 H         1 <0>         0.0801
     58 H32        -1.0384   -5.5669   -7.2942 H         1 <0>         0.2234
     59 H33         0.3835   -9.4922   -6.8250 H         1 <0>         0.2288
     60 H34        -1.2329   -4.2939    1.9052 H         1 <0>         0.4133
     61 H35        -1.1811   -3.5736   -3.1262 H         1 <0>         0.4301
@<TRIPOS>BOND
     1    1    2 1
     2    1   28 1
     3    1   29 1
     4    1   30 1
     5    2    7 ar
     6    2    3 ar
     7    3    4 ar
     8    3   31 1
     9    4    5 ar
    10    4   17 1
    11    5    6 ar
    12    5   16 1
    13    6    7 ar
    14    6    8 1
    15    7   32 1
    16    8    9 1
    17    8   33 1
    18    8   34 1
    19    9   14 1
    20    9   10 1
    21    9   60 1
    22   10   11 1
    23   10   35 1
    24   10   36 1
    25   11   12 1
    26   11   37 1
    27   11   38 1
    28   12   13 1
    29   12   15 1
    30   12   39 1
    31   13   14 1
    32   13   40 1
    33   13   41 1
    34   14   42 1
    35   14   43 1
    36   15   44 1
    37   15   45 1
    38   15   46 1
    39   16   47 1
    40   16   48 1
    41   16   49 1
    42   17   18 1
    43   17   50 1
    44   17   51 1
    45   18   19 1
    46   18   52 1
    47   18   61 1
    48   19   20 1
    49   19   53 1
    50   19   54 1
    51   20   21 1
    52   20   22 1
    53   20   23 1
    54   22   55 1
    55   22   56 1
    56   22   57 1
    57   23   27 1
    58   23   24 1
    59   24   25 2
    60   24   58 1
    61   25   26 1
    62   26   27 2
    63   26   59 1
@<TRIPOS>MOLECULE
ZINC63330616
   52    55     0     0     0
SMALL
USER_CHARGES

@<TRIPOS>ATOM
      1 C1          2.3816    0.0355   -0.8795 C.3       1 <0>        -0.1206
      2 C2          1.1516   -0.7066   -0.4240 C.ar      1 <0>        -0.0627
      3 C3          0.0066   -0.6871   -1.1990 C.ar      1 <0>        -0.0942
      4 C4         -1.1240   -1.3664   -0.7841 C.ar      1 <0>        -0.0566
      5 C5         -1.1127   -2.0667    0.4063 C.ar      1 <0>        -0.1009
      6 C6          0.0355   -2.0885    1.1863 C.ar      1 <0>         0.0858
      7 C7          1.1709   -1.4102    0.7644 C.ar      1 <0>        -0.1070
      8 N1          0.0499   -2.7982    2.3954 N.am      1 <0>        -0.5071
      9 C8         -0.0254   -4.1336    2.4526 C.2       1 <0>         0.5140
     10 O1         -0.1125   -4.8736    1.4963 O.2       1 <0>        -0.4060
     11 C9          0.0158   -4.5730    3.8999 C.3       1 <0>        -0.1681
     12 C10         0.1292   -3.2459    4.6775 C.3       1 <0>        -0.0068
     13 H1         -0.7315   -3.1101    5.3323 H         1 <0>         0.1981
     14 C11         0.1459   -2.1965    3.5875 C.2       1 <0>         0.5144
     15 O2          0.2301   -1.0003    3.7655 O.2       1 <0>        -0.4324
     16 N2          1.3771   -3.2052    5.4515 N.4       1 <0>        -0.4930
     17 C12         1.4042   -1.9879    6.2733 C.3       1 <0>        -0.0214
     18 C13         2.7039   -1.9456    7.0795 C.3       1 <0>        -0.1072
     19 C14         2.7316   -0.6967    7.9225 C.2       1 <0>         0.0212
     20 C15         2.3550   -0.5806    9.2164 C.ar      1 <0>        -0.1298
     21 C16         1.8260   -1.5448   10.1884 C.ar      1 <0>        -0.0454
     22 C17         1.5336   -1.1219   11.4393 C.ar      1 <0>        -0.1217
     23 C18         1.7222    0.2110   11.8297 C.ar      1 <0>         0.0548
     24 C19         2.2040    1.1546   10.9932 C.ar      1 <0>        -0.2021
     25 C20         2.5454    0.8209    9.6536 C.ar      1 <0>         0.3304
     26 N3          3.0213    1.5430    8.6683 N.pl3     1 <0>        -0.5691
     27 C21         3.1924    0.6788    7.4951 C.3       1 <0>         0.0620
     28 C22        -2.3700   -1.3422   -1.6314 C.3       1 <0>        -0.1247
     29 H2          2.9981   -0.6236   -1.4907 H         1 <0>         0.0810
     30 H3          2.0850    0.9041   -1.4674 H         1 <0>         0.0781
     31 H4          2.9514    0.3628   -0.0098 H         1 <0>         0.0676
     32 H5         -0.0047   -0.1398   -2.1300 H         1 <0>         0.1392
     33 H6         -1.9963   -2.5966    0.7302 H         1 <0>         0.1294
     34 H7          2.0670   -1.4290    1.3670 H         1 <0>         0.1220
     35 H8         -0.9014   -5.0974    4.1679 H         1 <0>         0.1683
     36 H9          0.8866   -5.2018    4.0853 H         1 <0>         0.1488
     37 H10         1.4284   -4.0161    6.0497 H         1 <0>         0.4455
     38 H11         1.3488   -1.1119    5.6270 H         1 <0>         0.1541
     39 H12         0.5537   -1.9908    6.9550 H         1 <0>         0.1509
     40 H13         2.7593   -2.8215    7.7257 H         1 <0>         0.1308
     41 H14         3.5543   -1.9426    6.3977 H         1 <0>         0.1319
     42 H15         1.6722   -2.5766    9.9088 H         1 <0>         0.1614
     43 H16         1.1443   -1.8297   12.1562 H         1 <0>         0.1641
     44 H17         1.4715    0.4948   12.8411 H         1 <0>         0.1684
     45 H18         2.3305    2.1685   11.3431 H         1 <0>         0.1676
     46 H19         4.2406    0.6484    7.1979 H         1 <0>         0.1789
     47 H20         2.5780    1.0416    6.6711 H         1 <0>         0.1752
     48 H21        -2.3485   -2.1761   -2.3331 H         1 <0>         0.0832
     49 H22        -3.2472   -1.4295   -0.9903 H         1 <0>         0.0725
     50 H23        -2.4157   -0.4036   -2.1838 H         1 <0>         0.0784
     51 H24         3.2293    2.4896    8.7093 H         1 <0>         0.4623
     52 H25         2.1644   -3.2025    4.8204 H         1 <0>         0.4364
@<TRIPOS>BOND
     1    1    2 1
     2    1   29 1
     3    1   30 1
     4    1   31 1
     5    2    7 ar
     6    2    3 ar
     7    3    4 ar
     8    3   32 1
     9    4    5 ar
    10    4   28 1
    11    5    6 ar
    12    5   33 1
    13    6    7 ar
    14    6    8 1
    15    7   34 1
    16    8   14 am
    17    8    9 am
    18    9   10 2
    19    9   11 1
    20   11   12 1
    21   11   35 1
    22   11   36 1
    23   12   13 1
    24   12   14 1
    25   12   16 1
    26   14   15 2
    27   16   17 1
    28   16   37 1
    29   16   52 1
    30   17   18 1
    31   17   38 1
    32   17   39 1
    33   18   19 1
    34   18   40 1
    35   18   41 1
    36   19   27 1
    37   19   20 2
    38   20   25 ar
    39   20   21 ar
    40   21   22 ar
    41   21   42 1
    42   22   23 ar
    43   22   43 1
    44   23   24 ar
    45   23   44 1
    46   24   25 ar
    47   24   45 1
    48   25   26 2
    49   26   27 1
    50   26   51 1
    51   27   46 1
    52   27   47 1
    53   28   48 1
    54   28   49 1
    55   28   50 1
@<TRIPOS>MOLECULE
ZINC65548792
   38    41     0     0     0
SMALL
USER_CHARGES

@<TRIPOS>ATOM
      1 C1         -0.0162    1.3438    0.0094 C.ar      1 <0>         0.0387
      2 C2          1.1577    2.1180    0.0024 C.ar      1 <0>         0.0387
      3 C3          2.3894    1.5703   -0.0128 C.ar      1 <0>        -0.1387
      4 C4          2.5325    0.1079   -0.0220 C.ar      1 <0>         0.3293
      5 N1          3.5686   -0.6799   -0.0365 N.pl3     1 <0>        -0.4704
      6 C5          3.0715   -2.0615   -0.0390 C.3       1 <0>         0.2805
      7 N2          1.6058   -1.9743   -0.0240 N.pl3     1 <0>        -0.4701
      8 C6          1.2899   -0.7116   -0.0141 C.ar      1 <0>         0.3285
      9 C7          0.0021   -0.0041    0.0020 C.ar      1 <0>        -0.1387
     10 C8          3.5415   -2.7865   -1.3017 C.3       1 <0>        -0.1713
     11 S1          2.9081   -1.9230   -2.7659 S.3       1 <0>         0.0315
     12 C9          3.5274   -2.8671   -4.1186 C.2       1 <0>         0.1920
     13 N3          4.2543   -3.9232   -3.9826 N.2       1 <0>        -0.2494
     14 N4          4.5889   -4.4506   -5.2385 N.pl3     1 <0>        -0.6380
     15 C10         3.9532   -3.5540   -6.2199 C.3       1 <0>         0.3494
     16 H1          4.7065   -3.0881   -6.8551 H         1 <0>         0.1258
     17 O1          3.2887   -2.5684   -5.4157 O.3       1 <0>        -0.2899
     18 C11         2.9542   -4.3109   -7.0565 C.ar      1 <0>        -0.1411
     19 C12         2.5153   -5.5571   -6.6498 C.ar      1 <0>        -0.0670
     20 C13         1.5992   -6.2519   -7.4166 C.ar      1 <0>        -0.1075
     21 C14         1.1202   -5.7001   -8.5918 C.ar      1 <0>        -0.0039
     22 C15         1.5585   -4.4531   -8.9990 C.ar      1 <0>        -0.1022
     23 C16         2.4721   -3.7560   -8.2285 C.ar      1 <0>         0.0056
     24 Cl1         3.0182   -2.1882   -8.7356 Cl        1 <0>        -0.0380
     25 Cl2        -0.0302   -6.5732   -9.5551 Cl        1 <0>        -0.0315
     26 H2         -0.9705    1.8493    0.0259 H         1 <0>         0.2058
     27 H3          1.0690    3.1943    0.0090 H         1 <0>         0.2058
     28 H4          3.2653    2.2022   -0.0185 H         1 <0>         0.2085
     29 H5          3.4241   -2.5876    0.8482 H         1 <0>         0.2548
     30 H6         -0.9237   -0.5603    0.0082 H         1 <0>         0.2083
     31 H7          4.6311   -2.7981   -1.3297 H         1 <0>         0.1744
     32 H8          3.1673   -3.8102   -1.2935 H         1 <0>         0.1747
     33 H9          5.1250   -5.2379   -5.4219 H         1 <0>         0.4624
     34 H10         2.8889   -5.9881   -5.7327 H         1 <0>         0.1411
     35 H11         1.2572   -7.2257   -7.0987 H         1 <0>         0.1486
     36 H12         1.1850   -4.0221   -9.9161 H         1 <0>         0.1558
     37 H13         4.4987   -0.4047   -0.0446 H         1 <0>         0.4986
     38 H14         0.9865   -2.7208   -0.0223 H         1 <0>         0.4986
@<TRIPOS>BOND
     1    1    9 ar
     2    1    2 ar
     3    1   26 1
     4    2    3 ar
     5    2   27 1
     6    3    4 ar
     7    3   28 1
     8    4    8 ar
     9    4    5 2
    10    5    6 1
    11    5   37 1
    12    6    7 1
    13    6   10 1
    14    6   29 1
    15    7    8 2
    16    7   38 1
    17    8    9 ar
    18    9   30 1
    19   10   11 1
    20   10   31 1
    21   10   32 1
    22   11   12 1
    23   12   17 1
    24   12   13 2
    25   13   14 1
    26   14   15 1
    27   14   33 1
    28   15   16 1
    29   15   17 1
    30   15   18 1
    31   18   23 ar
    32   18   19 ar
    33   19   20 ar
    34   19   34 1
    35   20   21 ar
    36   20   35 1
    37   21   22 ar
    38   21   25 1
    39   22   23 ar
    40   22   36 1
    41   23   24 1
@<TRIPOS>MOLECULE
ZINC35498438
   34    35     0     0     0
SMALL
USER_CHARGES

@<TRIPOS>ATOM
      1 C1         -0.0178    1.4648    0.0101 C.3       1 <0>        -0.0521
      2 N1          0.0021   -0.0041    0.0020 N.4       1 <0>        -0.5101
      3 C2         -1.3761   -0.5125    0.0124 C.3       1 <0>         0.1903
      4 H1         -1.9129   -0.0898    0.8617 H         1 <0>         0.1692
      5 C3         -1.3563   -2.0150    0.1280 C.ar      1 <0>        -0.1656
      6 C4         -0.4109   -2.7491   -0.5638 C.ar      1 <0>        -0.0661
      7 C5         -0.3928   -4.1271   -0.4578 C.ar      1 <0>        -0.1181
      8 C6         -1.3198   -4.7712    0.3404 C.ar      1 <0>         0.0075
      9 C7         -2.2644   -4.0373    1.0327 C.ar      1 <0>        -0.6494
     10 C8         -2.2798   -2.6586    0.9301 C.ar      1 <0>         0.0122
     11 S1         -3.4462   -4.8582    2.0495 S.o2      1 <0>         2.4936
     12 O1         -4.5615   -3.9786    2.0919 O.2       1 <0>        -0.9280
     13 O2         -3.5690   -6.1571    1.4864 O.2       1 <0>        -0.9229
     14 C9         -2.6661   -4.9572    3.6842 C.3       1 <0>        -0.6471
     15 C10        -2.0674   -0.1162   -1.2666 C.2       1 <0>        -0.2514
     16 C11        -3.3384    0.3162   -1.4508 C.2       1 <0>        -0.0631
     17 C12        -3.7626    0.6270   -2.7296 C.2       1 <0>        -0.1525
     18 C13        -2.8931    0.4895   -3.7618 C.2       1 <0>        -0.0704
     19 S2         -1.4219   -0.0871   -2.9308 S.3       1 <0>         0.1005
     20 Cl1        -3.1437    0.8002   -5.4512 Cl        1 <0>         0.0543
     21 H2          1.0047    1.8421    0.0024 H         1 <0>         0.1345
     22 H3         -0.5450    1.8259   -0.8730 H         1 <0>         0.1251
     23 H4         -0.5280    1.8163    0.9069 H         1 <0>         0.1315
     24 H5          0.4744   -0.3295   -0.8281 H         1 <0>         0.4243
     25 H6          0.3133   -2.2459   -1.1873 H         1 <0>         0.1268
     26 H7          0.3453   -4.7006   -0.9987 H         1 <0>         0.1497
     27 H8         -1.3061   -5.8480    0.4227 H         1 <0>         0.1573
     28 H9         -3.0155   -2.0848    1.4740 H         1 <0>         0.1547
     29 H10        -2.4521   -3.9515    4.0462 H         1 <0>         0.1319
     30 H11        -3.3406   -5.4576    4.3790 H         1 <0>         0.1413
     31 H12        -1.7368   -5.5219    3.6097 H         1 <0>         0.1345
     32 H13        -4.0103    0.4164   -0.6111 H         1 <0>         0.1565
     33 H14        -4.7705    0.9734   -2.9041 H         1 <0>         0.1616
     34 H15         0.4901   -0.3383    0.8195 H         1 <0>         0.4391
@<TRIPOS>BOND
     1    1    2 1
     2    1   21 1
     3    1   22 1
     4    1   23 1
     5    2    3 1
     6    2   24 1
     7    2   34 1
     8    3    4 1
     9    3    5 1
    10    3   15 1
    11    5   10 ar
    12    5    6 ar
    13    6    7 ar
    14    6   25 1
    15    7    8 ar
    16    7   26 1
    17    8    9 ar
    18    8   27 1
    19    9   10 ar
    20    9   11 1
    21   10   28 1
    22   11   12 2
    23   11   13 2
    24   11   14 1
    25   14   29 1
    26   14   30 1
    27   14   31 1
    28   15   19 1
    29   15   16 2
    30   16   17 1
    31   16   32 1
    32   17   18 2
    33   17   33 1
    34   18   19 1
    35   18   20 1
@<TRIPOS>MOLECULE
ZINC41064041
   34    35     0     0     0
SMALL
USER_CHARGES

@<TRIPOS>ATOM
      1 C1         -0.0187    1.5258    0.0104 C.3       1 <0>        -0.1831
      2 C2          0.0021   -0.0041    0.0020 C.3       1 <0>         0.0746
      3 H1         -1.0205   -0.3814    0.0098 H         1 <0>         0.1529
      4 C3          0.7074   -0.4901   -1.2379 C.ar      1 <0>        -0.1129
      5 C4          2.0244   -0.9044   -1.1665 C.ar      1 <0>        -0.1273
      6 C5          2.6713   -1.3507   -2.3035 C.ar      1 <0>        -0.0829
      7 C6          2.0017   -1.3828   -3.5128 C.ar      1 <0>        -0.0870
      8 C7          0.6852   -0.9688   -3.5851 C.ar      1 <0>        -0.0713
      9 C8          0.0356   -0.5270   -2.4462 C.ar      1 <0>        -0.0735
     10 Br1        -1.7679    0.0330   -2.5431 Br        1 <0>        -0.0184
     11 N1          0.7126   -0.4907    1.1921 N.4       1 <0>        -0.5031
     12 C9         -0.0398   -0.1189    2.3978 C.3       1 <0>        -0.0338
     13 C10         0.7001   -0.6257    3.6373 C.3       1 <0>         0.0891
     14 N2         -0.0502   -0.2549    4.8397 N.pl3     1 <0>        -0.4725
     15 C11         0.0873    0.9019    5.5583 C.2       1 <0>        -0.0620
     16 C12        -0.7899    0.8338    6.5779 C.2       1 <0>        -0.0077
     17 N3         -1.4451   -0.3328    6.4843 N.2       1 <0>        -0.4775
     18 C13        -1.0109   -0.9879    5.4426 C.2       1 <0>         0.1886
     19 H2          1.0039    1.9031    0.0027 H         1 <0>         0.0881
     20 H3         -0.5459    1.8868   -0.8726 H         1 <0>         0.1124
     21 H4         -0.5289    1.8773    0.9072 H         1 <0>         0.0902
     22 H5          2.5479   -0.8792   -0.2222 H         1 <0>         0.1252
     23 H6          3.7002   -1.6740   -2.2474 H         1 <0>         0.1449
     24 H7          2.5076   -1.7312   -4.4010 H         1 <0>         0.1478
     25 H8          0.1622   -0.9939   -4.5297 H         1 <0>         0.1490
     26 H9          0.7982   -1.4950    1.1455 H         1 <0>         0.4331
     27 H10        -0.1324    0.9660    2.4481 H         1 <0>         0.1443
     28 H11        -1.0328   -0.5668    2.3589 H         1 <0>         0.1432
     29 H12         0.7927   -1.7106    3.5869 H         1 <0>         0.1168
     30 H13         1.6931   -0.1778    3.6761 H         1 <0>         0.1143
     31 H14         0.7686    1.7132    5.3483 H         1 <0>         0.1817
     32 H15        -0.9395    1.5866    7.3377 H         1 <0>         0.1781
     33 H16        -1.3600   -1.9570    5.1179 H         1 <0>         0.2107
     34 H17         1.6317   -0.0761    1.2281 H         1 <0>         0.4282
@<TRIPOS>BOND
     1    1    2 1
     2    1   19 1
     3    1   20 1
     4    1   21 1
     5    2    3 1
     6    2    4 1
     7    2   11 1
     8    4    9 ar
     9    4    5 ar
    10    5    6 ar
    11    5   22 1
    12    6    7 ar
    13    6   23 1
    14    7    8 ar
    15    7   24 1
    16    8    9 ar
    17    8   25 1
    18    9   10 1
    19   11   12 1
    20   11   26 1
    21   11   34 1
    22   12   13 1
    23   12   27 1
    24   12   28 1
    25   13   14 1
    26   13   29 1
    27   13   30 1
    28   14   18 1
    29   14   15 1
    30   15   16 2
    31   15   31 1
    32   16   17 1
    33   16   32 1
    34   17   18 2
    35   18   33 1
@<TRIPOS>MOLECULE
ZINC50328485
   44    45     0     0     0
SMALL
USER_CHARGES

@<TRIPOS>ATOM
      1 C1          0.0738    1.3814    0.1653 C.3       1 <0>        -0.0540
      2 N1          0.0188   -0.0808    0.0357 N.4       1 <0>        -0.5074
      3 C2          0.5820   -0.4790   -1.2614 C.3       1 <0>         0.1227
      4 H1          0.0817    0.0705   -2.0588 H         1 <0>         0.1515
      5 C3          0.3770   -1.9580   -1.4653 C.ar      1 <0>        -0.0831
      6 C4          0.5378   -2.8307   -0.4053 C.ar      1 <0>        -0.1437
      7 C5          0.3499   -4.1873   -0.5924 C.ar      1 <0>        -0.0086
      8 C6          0.0006   -4.6713   -1.8392 C.ar      1 <0>        -0.6387
      9 C7         -0.1611   -3.7985   -2.8990 C.ar      1 <0>        -0.0087
     10 C8          0.0227   -2.4414   -2.7109 C.ar      1 <0>        -0.1061
     11 S1         -0.2379   -6.4007   -2.0779 S.o2      1 <0>         2.4927
     12 O1          0.0326   -6.6172   -3.4560 O.2       1 <0>        -0.9252
     13 O2          0.5600   -7.0182   -1.0773 O.2       1 <0>        -0.9265
     14 C9         -1.9971   -6.6804   -1.7350 C.3       1 <0>        -0.6470
     15 C10         2.0564   -0.1681   -1.2856 C.2       1 <0>        -0.1964
     16 C11         2.5389    0.5931   -2.2158 C.2       1 <0>        -0.0620
     17 C12         4.0178    0.9141   -2.2512 C.3       1 <0>        -0.1059
     18 C13         4.3372    1.8734   -1.1025 C.3       1 <0>        -0.1132
     19 C14         4.6078    1.1062    0.1797 C.3       1 <0>        -0.1281
     20 C15         3.3903    0.3789    0.7225 C.3       1 <0>        -0.1211
     21 C16         2.9643   -0.7421   -0.2190 C.3       1 <0>        -0.0948
     22 H2          1.0940    1.7235   -0.0087 H         1 <0>         0.1278
     23 H3         -0.5920    1.8365   -0.5681 H         1 <0>         0.1271
     24 H4         -0.2398    1.6693    1.1687 H         1 <0>         0.1307
     25 H5          0.5536   -0.5047    0.7789 H         1 <0>         0.4259
     26 H6          0.8107   -2.4525    0.5688 H         1 <0>         0.1308
     27 H7          0.4762   -4.8692    0.2356 H         1 <0>         0.1551
     28 H8         -0.4336   -4.1767   -3.8732 H         1 <0>         0.1566
     29 H9         -0.1073   -1.7591   -3.5380 H         1 <0>         0.1441
     30 H10        -2.6001   -6.0911   -2.4258 H         1 <0>         0.1334
     31 H11        -2.2284   -7.7379   -1.8620 H         1 <0>         0.1411
     32 H12        -2.2199   -6.3801   -0.7111 H         1 <0>         0.1325
     33 H13         1.8825    1.0013   -2.9701 H         1 <0>         0.1222
     34 H14         4.5943   -0.0033   -2.1328 H         1 <0>         0.0858
     35 H15         4.2671    1.3858   -3.2018 H         1 <0>         0.0831
     36 H16         5.2173    2.4623   -1.3608 H         1 <0>         0.0775
     37 H17         3.4909    2.5429   -0.9482 H         1 <0>         0.0627
     38 H18         5.3941    0.3757   -0.0106 H         1 <0>         0.0682
     39 H19         4.9620    1.8060    0.9366 H         1 <0>         0.0694
     40 H20         3.6300   -0.0430    1.6985 H         1 <0>         0.0769
     41 H21         2.5682    1.0865    0.8303 H         1 <0>         0.0560
     42 H22         2.4288   -1.5056    0.3452 H         1 <0>         0.0688
     43 H23         3.8463   -1.1800   -0.6862 H         1 <0>         0.0952
     44 H24        -0.9406   -0.3878    0.0943 H         1 <0>         0.4326
@<TRIPOS>BOND
     1    1    2 1
     2    1   22 1
     3    1   23 1
     4    1   24 1
     5    2    3 1
     6    2   25 1
     7    2   44 1
     8    3    4 1
     9    3    5 1
    10    3   15 1
    11    5   10 ar
    12    5    6 ar
    13    6    7 ar
    14    6   26 1
    15    7    8 ar
    16    7   27 1
    17    8    9 ar
    18    8   11 1
    19    9   10 ar
    20    9   28 1
    21   10   29 1
    22   11   12 2
    23   11   13 2
    24   11   14 1
    25   14   30 1
    26   14   31 1
    27   14   32 1
    28   15   21 1
    29   15   16 2
    30   16   17 1
    31   16   33 1
    32   17   18 1
    33   17   34 1
    34   17   35 1
    35   18   19 1
    36   18   36 1
    37   18   37 1
    38   19   20 1
    39   19   38 1
    40   19   39 1
    41   20   21 1
    42   20   40 1
    43   20   41 1
    44   21   42 1
    45   21   43 1
@<TRIPOS>MOLECULE
ZINC55336063
   38    39     0     0     0
SMALL
USER_CHARGES

@<TRIPOS>ATOM
      1 C1         -0.0184    1.5028    0.0103 C.3       1 <0>        -0.1240
      2 C2          0.0021   -0.0041    0.0020 C.ar      1 <0>         0.2221
      3 C3          0.0059   -0.7000   -1.1968 C.ar      1 <0>        -0.2682
      4 C4          0.0249   -2.0849   -1.1549 C.ar      1 <0>         0.1562
      5 N1          0.0386   -2.6933    0.0204 N.ar      1 <0>        -0.5007
      6 C5          0.0344   -1.9987    1.1402 C.ar      1 <0>         0.3662
      7 N2          0.0221   -0.6807    1.1390 N.ar      1 <0>        -0.4816
      8 C6          0.0499   -2.7308    2.4574 C.3       1 <0>        -0.0295
      9 C7          1.4758   -2.9560    2.8901 C.ar      1 <0>        -0.0693
     10 C8          2.1092   -4.1476    2.5904 C.ar      1 <0>        -0.0976
     11 C9          3.4171   -4.3541    2.9868 C.ar      1 <0>        -0.1047
     12 C10         4.0925   -3.3691    3.6833 C.ar      1 <0>        -0.1051
     13 C11         3.4601   -2.1775    3.9834 C.ar      1 <0>        -0.0927
     14 C12         2.1527   -1.9683    3.5823 C.ar      1 <0>        -0.0825
     15 Br1         1.2892   -0.3353    3.9864 Br        1 <0>        -0.0291
     16 C13        -0.0106    0.0320   -2.5140 C.3       1 <0>         0.0906
     17 H1         -0.6122    0.9361   -2.4198 H         1 <0>         0.1525
     18 C14         1.4194    0.4096   -2.9056 C.3       1 <0>        -0.1808
     19 N3         -0.5889   -0.8353   -3.5490 N.4       1 <0>        -0.5108
     20 C15        -0.7156   -0.0825   -4.8041 C.3       1 <0>        -0.0512
     21 H2          1.0042    1.8801    0.0026 H         1 <0>         0.1001
     22 H3         -0.5455    1.8639   -0.8728 H         1 <0>         0.0819
     23 H4         -0.5286    1.8543    0.9071 H         1 <0>         0.0988
     24 H5          0.0281   -2.6602   -2.0690 H         1 <0>         0.1597
     25 H6         -0.4685   -2.1362    3.2097 H         1 <0>         0.1165
     26 H7         -0.4517   -3.6919    2.3448 H         1 <0>         0.1129
     27 H8          1.5819   -4.9175    2.0467 H         1 <0>         0.1352
     28 H9          3.9115   -5.2854    2.7528 H         1 <0>         0.1339
     29 H10         5.1144   -3.5310    3.9932 H         1 <0>         0.1359
     30 H11         3.9878   -1.4081    4.5275 H         1 <0>         0.1364
     31 H12         1.4075    0.9390   -3.8584 H         1 <0>         0.0916
     32 H13         1.8486    1.0532   -2.1377 H         1 <0>         0.1078
     33 H14         2.0210   -0.4945   -2.9999 H         1 <0>         0.0838
     34 H15         0.0122   -1.6325   -3.6942 H         1 <0>         0.4272
     35 H16        -1.1448   -0.7261   -5.5720 H         1 <0>         0.1310
     36 H17        -1.3650    0.7787   -4.6472 H         1 <0>         0.1269
     37 H18         0.2690    0.2584   -5.1242 H         1 <0>         0.1280
     38 H19        -1.5003   -1.1509   -3.2526 H         1 <0>         0.4326
@<TRIPOS>BOND
     1    1    2 1
     2    1   21 1
     3    1   22 1
     4    1   23 1
     5    2    7 ar
     6    2    3 ar
     7    3    4 ar
     8    3   16 1
     9    4    5 ar
    10    4   24 1
    11    5    6 ar
    12    6    7 ar
    13    6    8 1
    14    8    9 1
    15    8   25 1
    16    8   26 1
    17    9   14 ar
    18    9   10 ar
    19   10   11 ar
    20   10   27 1
    21   11   12 ar
    22   11   28 1
    23   12   13 ar
    24   12   29 1
    25   13   14 ar
    26   13   30 1
    27   14   15 1
    28   16   17 1
    29   16   18 1
    30   16   19 1
    31   18   31 1
    32   18   32 1
    33   18   33 1
    34   19   20 1
    35   19   34 1
    36   19   38 1
    37   20   35 1
    38   20   36 1
    39   20   37 1
@<TRIPOS>MOLECULE
ZINC61947928
   46    47     0     0     0
SMALL
USER_CHARGES

@<TRIPOS>ATOM
      1 C1          0.5416   -1.5008   -1.4905 C.3       1 <0>        -0.1281
      2 C2          1.0998   -0.9203   -2.7029 C.3       1 <0>        -0.1192
      3 C3          2.6031   -1.2257   -2.8627 C.3       1 <0>        -0.1135
      4 C4          3.3793   -0.2741   -1.9932 C.3       1 <0>        -0.0984
      5 H1          2.7966    0.6375   -1.8604 H         1 <0>         0.1018
      6 C5          3.6984   -0.8680   -0.6079 C.3       1 <0>         0.0961
      7 H2          3.9717   -0.0574    0.0676 H         1 <0>         0.0488
      8 C6          2.5117   -1.6412   -0.0016 C.3       1 <0>        -0.1522
      9 C7          1.1981   -0.9383   -0.2132 C.3       1 <0>        -0.1181
     10 O1          4.8098   -1.7575   -0.7327 O.3       1 <0>        -0.5751
     11 C8          4.6935    0.0769   -2.6937 C.3       1 <0>        -0.0007
     12 N1          5.4454    1.0352   -1.8726 N.4       1 <0>        -0.3865
     13 C9          4.7138    2.3075   -1.8121 C.3       1 <0>        -0.0068
     14 C10         5.4874    3.3000   -0.9414 C.3       1 <0>         0.0083
     15 N2          6.8246    3.5107   -1.5137 N.3       1 <0>        -0.5359
     16 C11         7.5599    2.2413   -1.6036 C.3       1 <0>         0.0297
     17 C12         6.7692    1.2575   -2.4689 C.3       1 <0>        -0.0005
     18 C13         7.5796    4.5025   -0.7364 C.3       1 <0>         0.0082
     19 C14         7.0826    5.9075   -1.0824 C.3       1 <0>         0.4598
     20 F1          5.7623    6.0562   -0.6442 F         1 <0>        -0.1837
     21 F2          7.8931    6.8574   -0.4516 F         1 <0>        -0.1728
     22 F3          7.1378    6.0936   -2.4679 F         1 <0>        -0.1685
     23 H3         -0.5278   -1.2919   -1.4591 H         1 <0>         0.0687
     24 H4          0.6878   -2.5806   -1.5165 H         1 <0>         0.0665
     25 H5          0.5648   -1.3200   -3.5643 H         1 <0>         0.0726
     26 H6          0.9603    0.1603   -2.6734 H         1 <0>         0.0624
     27 H7          2.8034   -2.2513   -2.5527 H         1 <0>         0.0854
     28 H8          2.8953   -1.0914   -3.9042 H         1 <0>         0.0770
     29 H9          2.4617   -2.6280   -0.4617 H         1 <0>         0.0834
     30 H10         2.6789   -1.7613    1.0688 H         1 <0>         0.0713
     31 H11         1.3701    0.1316   -0.3306 H         1 <0>         0.0627
     32 H12         0.5461   -1.1155    0.6421 H         1 <0>         0.0743
     33 H13         5.0749   -2.1748    0.0984 H         1 <0>         0.3958
     34 H14         5.2856   -0.8281   -2.8298 H         1 <0>         0.1423
     35 H15         4.4797    0.5208   -3.6660 H         1 <0>         0.1310
     36 H16         4.6068    2.7132   -2.8181 H         1 <0>         0.1424
     37 H17         3.7268    2.1389   -1.3815 H         1 <0>         0.1369
     38 H18         4.9522    4.2490   -0.9086 H         1 <0>         0.1366
     39 H19         5.5827    2.9007    0.0683 H         1 <0>         0.0679
     40 H20         8.5367    2.4179   -2.0538 H         1 <0>         0.1306
     41 H21         7.6894    1.8245   -0.6048 H         1 <0>         0.0677
     42 H22         7.3060    0.3105   -2.5251 H         1 <0>         0.1412
     43 H23         6.6517    1.6686   -3.4715 H         1 <0>         0.1405
     44 H24         7.4340    4.3174    0.3279 H         1 <0>         0.0977
     45 H25         8.6397    4.4225   -0.9773 H         1 <0>         0.1336
     46 H26         5.5545    0.6658   -0.9400 H         1 <0>         0.4192
@<TRIPOS>BOND
     1    1    9 1
     2    1    2 1
     3    1   23 1
     4    1   24 1
     5    2    3 1
     6    2   25 1
     7    2   26 1
     8    3    4 1
     9    3   27 1
    10    3   28 1
    11    4    5 1
    12    4    6 1
    13    4   11 1
    14    6    7 1
    15    6    8 1
    16    6   10 1
    17    8    9 1
    18    8   29 1
    19    8   30 1
    20    9   31 1
    21    9   32 1
    22   10   33 1
    23   11   12 1
    24   11   34 1
    25   11   35 1
    26   12   17 1
    27   12   13 1
    28   12   46 1
    29   13   14 1
    30   13   36 1
    31   13   37 1
    32   14   15 1
    33   14   38 1
    34   14   39 1
    35   15   16 1
    36   15   18 1
    37   16   17 1
    38   16   40 1
    39   16   41 1
    40   17   42 1
    41   17   43 1
    42   18   19 1
    43   18   44 1
    44   18   45 1
    45   19   20 1
    46   19   21 1
    47   19   22 1
@<TRIPOS>MOLECULE
ZINC04726720
   58    59     0     0     0
SMALL
USER_CHARGES
N-[(6-ethyl-2,2-dimethyl-4-piperidylidene)amino]-2,2,6,6-tetramethyl-piperidin-4-imine
@<TRIPOS>ATOM
      1 C1          0.2639    5.5027   -0.0107 C.3       1 <0>        -0.1745
      2 C2         -1.2141    5.1106    0.0409 C.3       1 <0>        -0.1475
      3 C3         -1.3373    3.5855    0.0417 C.3       1 <0>         0.0364
      4 H1         -0.8100    3.1775   -0.8206 H         1 <0>         0.1413
      5 C4         -2.8172    3.1921   -0.0309 C.3       1 <0>        -0.1445
      6 C5         -2.9166    1.6893    0.1273 C.2       1 <0>         0.1811
      7 N1         -3.6174    0.9760   -0.6929 N.2       1 <0>        -0.3556
      8 N2         -4.3009    1.5920   -1.7493 N.2       1 <0>        -0.3577
      9 C6         -5.0007    0.8798   -2.5681 C.2       1 <0>         0.1875
     10 C7         -5.1110   -0.6216   -2.4202 C.3       1 <0>        -0.1312
     11 C8         -4.6867   -1.2711   -3.7406 C.3       1 <0>         0.0679
     12 C9         -5.3259    0.8108   -5.0174 C.3       1 <0>         0.0663
     13 C10        -5.7535    1.5049   -3.7214 C.3       1 <0>        -0.0812
     14 C11        -6.3667    1.1700   -6.1011 C.3       1 <0>        -0.1871
     15 C12        -3.9783    1.3819   -5.4745 C.3       1 <0>        -0.1711
     16 C13        -5.1586   -2.7415   -3.7077 C.3       1 <0>        -0.1861
     17 C14        -3.1560   -1.2859   -3.8264 C.3       1 <0>        -0.1696
     18 C15        -2.1673    1.0494    1.2776 C.3       1 <0>        -0.0897
     19 C16        -0.7288    1.5792    1.2668 C.3       1 <0>         0.0707
     20 C17        -0.0127    1.0858    0.0080 C.3       1 <0>        -0.1763
     21 C18         0.0109    1.0725    2.5065 C.3       1 <0>        -0.1796
     22 H2          0.7781    5.0971    0.8606 H         1 <0>         0.0531
     23 H3          0.7149    5.1013   -0.9182 H         1 <0>         0.0718
     24 H4          0.3517    6.5892   -0.0113 H         1 <0>         0.0885
     25 H5         -1.7283    5.5162   -0.8305 H         1 <0>         0.1129
     26 H6         -1.6651    5.5120    0.9484 H         1 <0>         0.0926
     27 H7         -3.3679    3.6834    0.7713 H         1 <0>         0.1160
     28 H8         -3.2295    3.4883   -0.9955 H         1 <0>         0.1335
     29 H9         -4.4571   -0.9614   -1.6161 H         1 <0>         0.1327
     30 H10        -6.1419   -0.8941   -2.1906 H         1 <0>         0.1148
     31 H11        -6.8267    1.3774   -3.5725 H         1 <0>         0.1233
     32 H12        -5.5195    2.5690   -3.7796 H         1 <0>         0.1316
     33 H13        -6.3905    2.2511   -6.2379 H         1 <0>         0.1104
     34 H14        -6.0926    0.6908   -7.0411 H         1 <0>         0.0887
     35 H15        -7.3512    0.8214   -5.7891 H         1 <0>         0.0871
     36 H16        -3.2292    1.2080   -4.7020 H         1 <0>         0.0758
     37 H17        -3.6696    0.8906   -6.3972 H         1 <0>         0.0863
     38 H18        -4.0782    2.4532   -5.6491 H         1 <0>         0.1086
     39 H19        -4.8392   -3.2461   -4.6195 H         1 <0>         0.0876
     40 H20        -4.7237   -3.2434   -2.8433 H         1 <0>         0.1073
     41 H21        -6.2458   -2.7727   -3.6369 H         1 <0>         0.0857
     42 H22        -2.7852   -0.2623   -3.8787 H         1 <0>         0.0751
     43 H23        -2.7473   -1.7757   -2.9425 H         1 <0>         0.1036
     44 H24        -2.8474   -1.8303   -4.7188 H         1 <0>         0.0868
     45 H25        -2.1610   -0.0337    1.1554 H         1 <0>         0.1326
     46 H26        -2.6483    1.3107    2.2202 H         1 <0>         0.1234
     47 H27         0.0021   -0.0041    0.0020 H         1 <0>         0.1077
     48 H28         1.0099    1.4631    0.0003 H         1 <0>         0.0890
     49 H29        -0.5399    1.4469   -0.8751 H         1 <0>         0.0746
     50 H30         1.0335    1.4498    2.4989 H         1 <0>         0.0900
     51 H31        -0.4994    1.4242    3.4032 H         1 <0>         0.0883
     52 H32         0.0257   -0.0173    2.5007 H         1 <0>         0.1110
     53 N3         -5.3099   -0.6781   -4.9573 N.4       1 <0>        -0.5117
     54 H33        -6.2818   -1.0058   -5.0051 H         1 <0>         0.4341
     55 H34        -4.7925   -1.0208   -5.7753 H         1 <0>         0.4363
     56 N4         -0.7444    3.0556    1.2859 N.4       1 <0>        -0.5161
     57 H35        -1.2997    3.3768    2.0876 H         1 <0>         0.4325
     58 H36         0.2180    3.4020    1.3752 H         1 <0>         0.4349
@<TRIPOS>BOND
     1    1    2 1
     2    1   22 1
     3    1   23 1
     4    1   24 1
     5    2    3 1
     6    2   25 1
     7    2   26 1
     8    3    4 1
     9    3    5 1
    10    3   56 1
    11    5    6 1
    12    5   27 1
    13    5   28 1
    14    6    7 2
    15    6   18 1
    16    7    8 1
    17    8    9 2
    18    9   13 1
    19    9   10 1
    20   10   11 1
    21   10   29 1
    22   10   30 1
    23   11   16 1
    24   11   17 1
    25   11   53 1
    26   12   13 1
    27   12   14 1
    28   12   15 1
    29   12   53 1
    30   13   31 1
    31   13   32 1
    32   14   33 1
    33   14   34 1
    34   14   35 1
    35   15   36 1
    36   15   37 1
    37   15   38 1
    38   16   39 1
    39   16   40 1
    40   16   41 1
    41   17   42 1
    42   17   43 1
    43   17   44 1
    44   18   19 1
    45   18   45 1
    46   18   46 1
    47   19   20 1
    48   19   21 1
    49   19   56 1
    50   20   47 1
    51   20   48 1
    52   20   49 1
    53   21   50 1
    54   21   51 1
    55   21   52 1
    56   53   54 1
    57   53   55 1
    58   56   57 1
    59   56   58 1
@<TRIPOS>MOLECULE
ZINC32071489
   43    43     0     0     0
SMALL
USER_CHARGES
2-[(1S)-2-amino-1-[tert-butyl(ethyl)amino]ethyl]-4-bromo-phenol
@<TRIPOS>ATOM
      1 C1         -0.6917    1.3012   -1.4860 C.3       1 <0>        -0.2537
      2 C2         -0.2330    0.9322   -0.0738 C.3       1 <0>        -0.0634
      3 N1         -0.7518    1.9187    0.8831 N.4       1 <0>        -0.4090
      4 C3         -2.1037    1.5577    1.3304 C.3       1 <0>         0.0778
      5 H1         -2.0037    0.7846    2.1065 H         1 <0>         0.1669
      6 C4         -2.9128    1.0378    0.1405 C.3       1 <0>        -0.0226
      7 N2         -2.3783   -0.2630   -0.2842 N.4       1 <0>        -0.7345
      8 C5         -2.7831    2.7728    1.9073 C.ar      1 <0>        -0.1870
      9 C6         -2.4840    4.0298    1.4179 C.ar      1 <0>        -0.0609
     10 C7         -3.1120    5.1449    1.9429 C.ar      1 <0>        -0.1182
     11 C8         -4.0315    5.0053    2.9673 C.ar      1 <0>        -0.0124
     12 C9         -4.3292    3.7511    3.4633 C.ar      1 <0>        -0.1842
     13 C10        -3.7050    2.6307    2.9339 C.ar      1 <0>         0.2104
     14 O1         -3.9968    1.3955    3.4203 O.3       1 <0>        -0.5163
     15 Br1        -2.7064    6.8633    1.2657 Br        1 <0>        -0.0023
     16 C11         0.1577    2.0719    2.0265 C.3       1 <0>         0.0609
     17 C12         1.4706    2.6990    1.5534 C.3       1 <0>        -0.1830
     18 C13        -0.4906    2.9767    3.0761 C.3       1 <0>        -0.1892
     19 C14         0.4403    0.6994    2.6408 C.3       1 <0>        -0.1836
     20 H2         -0.3032    0.5625   -2.2025 H         1 <0>         0.1378
     21 H3         -0.3107    2.2998   -1.7461 H         1 <0>         0.1254
     22 H4         -1.7910    1.3066   -1.5247 H         1 <0>         0.0915
     23 H5         -0.6140   -0.0664    0.1863 H         1 <0>         0.1388
     24 H6          0.8663    0.9267   -0.0350 H         1 <0>         0.1762
     25 H7         -3.9662    0.9227    0.4356 H         1 <0>         0.1760
     26 H8         -2.8414    1.7531   -0.6921 H         1 <0>         0.1598
     27 H9         -2.9600   -0.6368   -1.1397 H         1 <0>         0.4709
     28 H10        -2.4498   -0.9783    0.5484 H         1 <0>         0.4609
     29 H11        -1.7627    4.1413    0.6218 H         1 <0>         0.1306
     30 H12        -4.5172    5.8776    3.3791 H         1 <0>         0.1556
     31 H13        -5.0470    3.6425    4.2629 H         1 <0>         0.1574
     32 H14        -4.7280    1.2836    4.2344 H         1 <0>         0.4719
     33 H15         2.1516    2.8137    2.4096 H         1 <0>         0.1185
     34 H16         1.2674    3.6857    1.1117 H         1 <0>         0.0877
     35 H17         1.9367    2.0484    0.7987 H         1 <0>         0.0836
     36 H18         0.1904    3.0914    3.9323 H         1 <0>         0.1086
     37 H19        -1.4345    2.5258    3.4162 H         1 <0>         0.0911
     38 H20        -0.6938    3.9634    2.6344 H         1 <0>         0.0874
     39 H21         1.1213    0.8141    3.4970 H         1 <0>         0.1182
     40 H22         0.9064    0.0489    1.8861 H         1 <0>         0.0816
     41 H23        -0.5037    0.2486    2.9809 H         1 <0>         0.0783
     42 H24        -0.8139    2.8888    0.3683 H         1 <0>         0.4456
     43 H25        -1.3249   -0.1479   -0.5793 H         1 <0>         0.4506
@<TRIPOS>BOND
     1    1    2 1
     2    1   20 1
     3    1   21 1
     4    1   22 1
     5    2    3 1
     6    2   23 1
     7    2   24 1
     8    3    4 1
     9    3   16 1
    10    3   42 1
    11    4    5 1
    12    4    6 1
    13    4    8 1
    14    6    7 1
    15    6   25 1
    16    6   26 1
    17    7   27 1
    18    7   28 1
    19    7   43 1
    20    8   13 ar
    21    8    9 ar
    22    9   10 ar
    23    9   29 1
    24   10   11 ar
    25   10   15 1
    26   11   12 ar
    27   11   30 1
    28   12   13 ar
    29   12   31 1
    30   13   14 1
    31   14   32 1
    32   16   17 1
    33   16   18 1
    34   16   19 1
    35   17   33 1
    36   17   34 1
    37   17   35 1
    38   18   36 1
    39   18   37 1
    40   18   38 1
    41   19   39 1
    42   19   40 1
    43   19   41 1
@<TRIPOS>MOLECULE
ZINC39029992
   67    70     0     0     0
SMALL
USER_CHARGES

@<TRIPOS>ATOM
      1 C1         -0.4588   -1.3269    3.2268 C.3       1 <0>        -0.1523
      2 C2         -0.6322   -2.6480    2.4623 C.3       1 <0>        -0.0419
      3 C3          0.4059   -2.7390    1.3514 C.3       1 <0>        -0.1014
      4 C4          1.8201   -2.7717    1.9336 C.3       1 <0>        -0.1563
      5 C5          1.9602   -3.9672    2.8761 C.3       1 <0>         0.1072
      6 H1          1.7917   -4.8902    2.3210 H         1 <0>         0.0527
      7 C6          0.9430   -3.8551    4.0105 C.3       1 <0>        -0.1135
      8 C7         -0.4776   -3.8082    3.4479 C.3       1 <0>        -0.0694
      9 H2         -1.1720   -3.6422    4.2840 H         1 <0>         0.0726
     10 C8         -0.8120   -5.1553    2.8116 C.3       1 <0>        -0.1221
     11 C9         -2.2304   -5.1358    2.2250 C.3       1 <0>        -0.1109
     12 C10        -2.2637   -4.0281    1.1784 C.3       1 <0>        -0.0799
     13 H3         -1.3919   -4.1950    0.5120 H         1 <0>         0.0766
     14 C11        -2.0470   -2.6832    1.8780 C.3       1 <0>        -0.0740
     15 H4         -2.7226   -2.5983    2.7325 H         1 <0>         0.0804
     16 C12        -2.3280   -1.5562    0.8976 C.3       1 <0>        -0.1118
     17 C13        -3.8264   -1.5091    0.5425 C.3       1 <0>        -0.1148
     18 C14        -4.4592   -2.8673    0.6654 C.3       1 <0>        -0.0566
     19 C15        -3.4780   -4.0009    0.3074 C.3       1 <0>        -0.1043
     20 H5         -3.1412   -3.8659   -0.7421 H         1 <0>         0.0852
     21 C16        -4.3907   -5.2367    0.3385 C.3       1 <0>        -0.1321
     22 C17        -5.7218   -4.7176   -0.2696 C.3       1 <0>        -0.1400
     23 C18        -5.6127   -3.1706   -0.3130 C.3       1 <0>         0.0102
     24 H6         -6.5284   -2.7135    0.0495 H         1 <0>         0.1490
     25 N1         -5.2991   -2.7250   -1.6709 N.4       1 <0>        -0.3706
     26 C19        -4.1981   -3.5346   -2.2098 C.3       1 <0>        -0.0854
     27 C20        -6.4849   -2.8814   -2.5237 C.3       1 <0>        -0.0441
     28 C21        -6.2071   -2.2732   -3.8999 C.3       1 <0>        -0.0341
     29 N2         -7.3929   -2.4296   -4.7528 N.4       1 <0>        -0.6299
     30 C22        -5.0471   -3.0514    2.0734 C.3       1 <0>        -0.1576
     31 O1          3.2817   -3.9846    3.4244 O.3       1 <0>        -0.5676
     32 H7          0.5315   -1.2974    3.6813 H         1 <0>         0.0661
     33 H8         -0.5666   -0.4905    2.5362 H         1 <0>         0.0560
     34 H9         -1.2181   -1.2553    4.0055 H         1 <0>         0.0566
     35 H10         0.2492   -3.6433    0.7619 H         1 <0>         0.0631
     36 H11         0.3135   -1.8713    0.6929 H         1 <0>         0.0615
     37 H12         2.5384   -2.8796    1.1146 H         1 <0>         0.0626
     38 H13         2.0379   -1.8506    2.4664 H         1 <0>         0.0759
     39 H14         1.0363   -4.7361    4.6565 H         1 <0>         0.0704
     40 H15         1.1470   -2.9699    4.6076 H         1 <0>         0.0756
     41 H16        -0.1013   -5.3707    2.0136 H         1 <0>         0.0650
     42 H17        -0.7504   -5.9394    3.5674 H         1 <0>         0.0696
     43 H18        -2.4432   -6.0958    1.7598 H         1 <0>         0.0674
     44 H19        -2.9480   -4.9313    3.0151 H         1 <0>         0.0667
     45 H20        -2.0418   -0.5919    1.3219 H         1 <0>         0.0809
     46 H21        -1.7484   -1.7143   -0.0172 H         1 <0>         0.0641
     47 H22        -4.3290   -0.8088    1.2283 H         1 <0>         0.0855
     48 H23        -3.9356   -1.1031   -0.4674 H         1 <0>         0.0445
     49 H24        -3.9724   -6.0292   -0.2874 H         1 <0>         0.0851
     50 H25        -4.5357   -5.5993    1.3525 H         1 <0>         0.0989
     51 H26        -5.8495   -5.1085   -1.2786 H         1 <0>         0.0818
     52 H27        -6.5616   -5.0153    0.3564 H         1 <0>         0.1121
     53 H28        -4.2501   -4.5410   -1.7946 H         1 <0>         0.1507
     54 H29        -4.2816   -3.5847   -3.2955 H         1 <0>         0.1189
     55 H30        -3.2457   -3.0787   -1.9393 H         1 <0>         0.1469
     56 H31        -6.7156   -3.9409   -2.6345 H         1 <0>         0.1534
     57 H32        -7.3320   -2.3711   -2.0653 H         1 <0>         0.1547
     58 H33        -5.9764   -1.2137   -3.7891 H         1 <0>         0.1570
     59 H34        -5.3600   -2.7835   -4.3584 H         1 <0>         0.1559
     60 H35        -7.6064   -3.4104   -4.8554 H         1 <0>         0.4455
     61 H36        -8.1770   -1.9572   -4.3284 H         1 <0>         0.4459
     62 H37        -5.7282   -2.2293    2.2931 H         1 <0>         0.0685
     63 H38        -5.5901   -3.9954    2.1198 H         1 <0>         0.0712
     64 H39        -4.2399   -3.0602    2.8059 H         1 <0>         0.0908
     65 H40         3.9817   -4.0583    2.7613 H         1 <0>         0.3808
     66 H41        -5.0245   -1.7543   -1.6513 H         1 <0>         0.4286
     67 H42        -7.2097   -2.0286   -5.6604 H         1 <0>         0.4581
@<TRIPOS>BOND
     1    1    2 1
     2    1   32 1
     3    1   33 1
     4    1   34 1
     5    2    8 1
     6    2   14 1
     7    2    3 1
     8    3    4 1
     9    3   35 1
    10    3   36 1
    11    4    5 1
    12    4   37 1
    13    4   38 1
    14    5    6 1
    15    5    7 1
    16    5   31 1
    17    7    8 1
    18    7   39 1
    19    7   40 1
    20    8    9 1
    21    8   10 1
    22   10   11 1
    23   10   41 1
    24   10   42 1
    25   11   12 1
    26   11   43 1
    27   11   44 1
    28   12   13 1
    29   12   19 1
    30   12   14 1
    31   14   15 1
    32   14   16 1
    33   16   17 1
    34   16   45 1
    35   16   46 1
    36   17   18 1
    37   17   47 1
    38   17   48 1
    39   18   23 1
    40   18   19 1
    41   18   30 1
    42   19   20 1
    43   19   21 1
    44   21   22 1
    45   21   49 1
    46   21   50 1
    47   22   23 1
    48   22   51 1
    49   22   52 1
    50   23   24 1
    51   23   25 1
    52   25   26 1
    53   25   27 1
    54   25   66 1
    55   26   53 1
    56   26   54 1
    57   26   55 1
    58   27   28 1
    59   27   56 1
    60   27   57 1
    61   28   29 1
    62   28   58 1
    63   28   59 1
    64   29   60 1
    65   29   61 1
    66   29   67 1
    67   30   62 1
    68   30   63 1
    69   30   64 1
    70   31   65 1
@<TRIPOS>MOLECULE
ZINC43735900
   67    70     0     0     0
SMALL
USER_CHARGES

@<TRIPOS>ATOM
      1 C1         -0.1733   -0.3143   -3.4356 C.3       1 <0>        -0.1533
      2 C2         -0.7264   -1.7423   -3.3250 C.3       1 <0>        -0.0433
      3 C3         -1.1752   -2.1930   -4.7193 C.3       1 <0>        -0.1053
      4 C4          0.0130   -2.2070   -5.6828 C.3       1 <0>        -0.1571
      5 C5          1.0864   -3.1655   -5.1638 C.3       1 <0>         0.1071
      6 H1          0.6760   -4.1728   -5.1029 H         1 <0>         0.0501
      7 C6          1.5507   -2.7192   -3.7764 C.3       1 <0>        -0.1126
      8 C7          0.3575   -2.6888   -2.8235 C.3       1 <0>        -0.0643
      9 H2         -0.0621   -3.6991   -2.7611 H         1 <0>         0.0657
     10 C8          0.8137   -2.2522   -1.4322 C.3       1 <0>        -0.1193
     11 C9         -0.3730   -2.3247   -0.4821 C.3       1 <0>        -0.1108
     12 C10        -1.5255   -1.4089   -0.9248 C.3       1 <0>        -0.0645
     13 H3         -1.2590   -0.3703   -0.7855 H         1 <0>         0.0892
     14 C11        -1.9127   -1.7067   -2.3733 C.3       1 <0>        -0.0725
     15 H4         -2.5370   -0.8805   -2.7426 H         1 <0>         0.0755
     16 C12        -2.7534   -2.9777   -2.4186 C.3       1 <0>        -0.1202
     17 C13        -4.1573   -2.6885   -1.8509 C.3       1 <0>        -0.1151
     18 C14        -4.0578   -1.6996   -0.7173 C.3       1 <0>        -0.0628
     19 C15        -2.6904   -1.7853   -0.0194 C.3       1 <0>        -0.0909
     20 H5         -2.5202   -2.8209    0.3260 H         1 <0>         0.0675
     21 C16        -2.8795   -0.8837    1.2085 C.3       1 <0>        -0.1318
     22 C17        -4.3550   -1.1210    1.6237 C.3       1 <0>        -0.1566
     23 C18        -5.0042   -1.9423    0.4772 C.3       1 <0>         0.0140
     24 H6         -5.9966   -1.5782    0.2513 H         1 <0>         0.1480
     25 N1         -5.0287   -3.3602    0.8525 N.4       1 <0>        -0.3775
     26 C19        -4.2809   -3.5488    2.1028 C.3       1 <0>        -0.0764
     27 C20        -6.4196   -3.7921    1.0439 C.3       1 <0>        -0.0411
     28 C21        -6.4471   -5.2790    1.4037 C.3       1 <0>        -0.0346
     29 N2         -7.8380   -5.7108    1.5951 N.4       1 <0>        -0.6301
     30 C22        -4.3568   -0.2799   -1.2179 C.3       1 <0>        -0.1550
     31 O1          2.2007   -3.1641   -6.0614 O.3       1 <0>        -0.5671
     32 H7          0.6629   -0.3017   -4.1346 H         1 <0>         0.0666
     33 H8         -0.9574    0.3522   -3.7949 H         1 <0>         0.0545
     34 H9          0.1672    0.0203   -2.4557 H         1 <0>         0.0588
     35 H10        -1.5796   -3.2064   -4.6575 H         1 <0>         0.0617
     36 H11        -1.9414   -1.5174   -5.0944 H         1 <0>         0.0665
     37 H12        -0.3272   -2.5545   -6.6635 H         1 <0>         0.0643
     38 H13         0.4300   -1.2121   -5.7992 H         1 <0>         0.0777
     39 H14         2.2818   -3.4424   -3.4026 H         1 <0>         0.0684
     40 H15         2.0275   -1.7500   -3.8350 H         1 <0>         0.0768
     41 H16         1.5842   -2.9535   -1.0874 H         1 <0>         0.0654
     42 H17         1.2375   -1.2577   -1.4488 H         1 <0>         0.0749
     43 H18        -0.7498   -3.3506   -0.4584 H         1 <0>         0.0542
     44 H19        -0.0619   -2.0451    0.5244 H         1 <0>         0.0636
     45 H20        -2.8551   -3.3208   -3.4505 H         1 <0>         0.0834
     46 H21        -2.2720   -3.7564   -1.8312 H         1 <0>         0.0664
     47 H22        -4.7868   -2.2751   -2.6488 H         1 <0>         0.0897
     48 H23        -4.6129   -3.6284   -1.5264 H         1 <0>         0.0434
     49 H24        -2.2083   -1.1926    2.0154 H         1 <0>         0.0860
     50 H25        -2.7069    0.1597    0.9598 H         1 <0>         0.0949
     51 H26        -4.3973   -1.6933    2.5500 H         1 <0>         0.0999
     52 H27        -4.8694   -0.1712    1.7518 H         1 <0>         0.1105
     53 H28        -4.8490   -3.1286    2.9328 H         1 <0>         0.1368
     54 H29        -4.1214   -4.6134    2.2737 H         1 <0>         0.1249
     55 H30        -3.3175   -3.0442    2.0296 H         1 <0>         0.1470
     56 H31        -6.8716   -3.2148    1.8505 H         1 <0>         0.1542
     57 H32        -6.9802   -3.6306    0.1232 H         1 <0>         0.1529
     58 H33        -5.9951   -5.8563    0.5971 H         1 <0>         0.1555
     59 H34        -5.8865   -5.4404    2.3244 H         1 <0>         0.1568
     60 H35        -8.2564   -5.1764    2.3417 H         1 <0>         0.4456
     61 H36        -8.3570   -5.5614    0.7428 H         1 <0>         0.4455
     62 H37        -5.2922   -0.2815   -1.7775 H         1 <0>         0.0693
     63 H38        -4.4439    0.3948   -0.3663 H         1 <0>         0.0718
     64 H39        -3.5466    0.0551   -1.8656 H         1 <0>         0.0897
     65 H40         1.9811   -3.4415   -6.9614 H         1 <0>         0.3820
     66 H41        -4.6037   -3.9093    0.1204 H         1 <0>         0.4274
     67 H42        -7.8561   -6.6914    1.8323 H         1 <0>         0.4579
@<TRIPOS>BOND
     1    1    2 1
     2    1   32 1
     3    1   33 1
     4    1   34 1
     5    2    8 1
     6    2   14 1
     7    2    3 1
     8    3    4 1
     9    3   35 1
    10    3   36 1
    11    4    5 1
    12    4   37 1
    13    4   38 1
    14    5    6 1
    15    5    7 1
    16    5   31 1
    17    7    8 1
    18    7   39 1
    19    7   40 1
    20    8    9 1
    21    8   10 1
    22   10   11 1
    23   10   41 1
    24   10   42 1
    25   11   12 1
    26   11   43 1
    27   11   44 1
    28   12   13 1
    29   12   19 1
    30   12   14 1
    31   14   15 1
    32   14   16 1
    33   16   17 1
    34   16   45 1
    35   16   46 1
    36   17   18 1
    37   17   47 1
    38   17   48 1
    39   18   23 1
    40   18   19 1
    41   18   30 1
    42   19   20 1
    43   19   21 1
    44   21   22 1
    45   21   49 1
    46   21   50 1
    47   22   23 1
    48   22   51 1
    49   22   52 1
    50   23   24 1
    51   23   25 1
    52   25   26 1
    53   25   27 1
    54   25   66 1
    55   26   53 1
    56   26   54 1
    57   26   55 1
    58   27   28 1
    59   27   56 1
    60   27   57 1
    61   28   29 1
    62   28   58 1
    63   28   59 1
    64   29   60 1
    65   29   61 1
    66   29   67 1
    67   30   62 1
    68   30   63 1
    69   30   64 1
    70   31   65 1
@<TRIPOS>MOLECULE
ZINC53860214
   59    60     0     0     0
SMALL
USER_CHARGES

@<TRIPOS>ATOM
      1 C1         -0.0187    1.5258    0.0104 C.3       1 <0>        -0.1570
      2 C2          0.0021   -0.0041    0.0020 C.3       1 <0>        -0.0615
      3 C3          0.7421   -0.5109    1.2415 C.3       1 <0>        -0.1543
      4 C4         -1.4333   -0.5336    0.0129 C.3       1 <0>        -0.1532
      5 C5          0.7182   -0.4975   -1.2568 C.3       1 <0>        -0.0878
      6 H1          0.7330   -1.5874   -1.2628 H         1 <0>         0.0827
      7 C6         -0.0218    0.0093   -2.4963 C.3       1 <0>        -0.1418
      8 C7          0.6944   -0.4841   -3.7551 C.3       1 <0>        -0.1532
      9 C8          2.1297    0.0455   -3.7660 C.3       1 <0>         0.0382
     10 H2          2.6399   -0.3060   -4.6628 H         1 <0>         0.1527
     11 C9          2.8697   -0.4613   -2.5264 C.3       1 <0>        -0.1375
     12 H3          3.8923   -0.0840   -2.5342 H         1 <0>         0.1206
     13 C10         2.1536    0.0321   -1.2676 C.3       1 <0>        -0.1537
     14 C11         2.8905   -1.9912   -2.5349 C.3       1 <0>        -0.0089
     15 N1          3.7022   -2.4761   -1.4106 N.4       1 <0>        -0.3812
     16 C12         5.0968   -2.0594   -1.6005 C.3       1 <0>        -0.0153
     17 C13         5.9312   -2.4918   -0.3929 C.3       1 <0>        -0.1469
     18 C14         5.8665   -4.0155   -0.2539 C.3       1 <0>        -0.1322
     19 C15         4.4018   -4.4453   -0.1311 C.3       1 <0>        -0.1105
     20 H4          3.9728   -4.0208    0.7766 H         1 <0>         0.1024
     21 C16         3.6240   -3.9405   -1.3484 C.3       1 <0>        -0.0038
     22 C17         4.3207   -5.9719   -0.0690 C.3       1 <0>         0.0829
     23 O1          4.9515   -6.4341    1.1270 O.3       1 <0>        -0.5673
     24 N2          2.1098    1.5144   -3.7579 N.4       1 <0>        -0.5091
     25 C18         1.5060    2.0027   -5.0048 C.3       1 <0>        -0.0548
     26 H5          1.0039    1.9031    0.0027 H         1 <0>         0.0539
     27 H6         -0.5459    1.8868   -0.8726 H         1 <0>         0.0589
     28 H7         -0.5289    1.8773    0.9072 H         1 <0>         0.0716
     29 H8          0.2319   -0.1594    2.1383 H         1 <0>         0.0719
     30 H9          0.7568   -1.6008    1.2356 H         1 <0>         0.0567
     31 H10         1.7647   -0.1336    1.2338 H         1 <0>         0.0538
     32 H11        -1.9605   -0.1726   -0.8702 H         1 <0>         0.0615
     33 H12        -1.4185   -1.6235    0.0069 H         1 <0>         0.0593
     34 H13        -1.9435   -0.1821    0.9097 H         1 <0>         0.0683
     35 H14        -1.0444   -0.3679   -2.4886 H         1 <0>         0.1076
     36 H15        -0.0366    1.0992   -2.4903 H         1 <0>         0.0703
     37 H16         0.7091   -1.5740   -3.7611 H         1 <0>         0.1121
     38 H17         0.1672   -0.1230   -4.6382 H         1 <0>         0.1056
     39 H18         2.1388    1.1220   -1.2617 H         1 <0>         0.0919
     40 H19         2.6808   -0.3290   -0.3846 H         1 <0>         0.0922
     41 H20         1.8727   -2.3689   -2.4376 H         1 <0>         0.1454
     42 H21         3.3208   -2.3435   -3.4723 H         1 <0>         0.1440
     43 H22         5.4951   -2.5247   -2.5021 H         1 <0>         0.1349
     44 H23         5.1409   -0.9750   -1.7025 H         1 <0>         0.1272
     45 H24         6.9667   -2.1831   -0.5366 H         1 <0>         0.1185
     46 H25         5.5340   -2.0268    0.5093 H         1 <0>         0.0890
     47 H26         6.3104   -4.4810   -1.1339 H         1 <0>         0.0836
     48 H27         6.4128   -4.3237    0.6376 H         1 <0>         0.1063
     49 H28         2.5808   -4.2449   -1.2643 H         1 <0>         0.1351
     50 H29         4.0537   -4.3657   -2.2554 H         1 <0>         0.1367
     51 H30         3.2754   -6.2806   -0.0712 H         1 <0>         0.0574
     52 H31         4.8273   -6.3981   -0.9350 H         1 <0>         0.0585
     53 H32         4.9376   -7.3952    1.2328 H         1 <0>         0.4008
     54 H33         1.5671    1.8390   -2.9717 H         1 <0>         0.4280
     55 H34         1.4912    3.0926   -4.9988 H         1 <0>         0.1353
     56 H35         2.0922    1.6520   -5.8542 H         1 <0>         0.1305
     57 H36         0.4864    1.6260   -5.0867 H         1 <0>         0.1292
     58 H37         3.0536    1.8631   -3.6821 H         1 <0>         0.4321
     59 H38         3.3506   -2.0846   -0.5497 H         1 <0>         0.4225
@<TRIPOS>BOND
     1    1    2 1
     2    1   26 1
     3    1   27 1
     4    1   28 1
     5    2    3 1
     6    2    4 1
     7    2    5 1
     8    3   29 1
     9    3   30 1
    10    3   31 1
    11    4   32 1
    12    4   33 1
    13    4   34 1
    14    5    6 1
    15    5   13 1
    16    5    7 1
    17    7    8 1
    18    7   35 1
    19    7   36 1
    20    8    9 1
    21    8   37 1
    22    8   38 1
    23    9   10 1
    24    9   11 1
    25    9   24 1
    26   11   12 1
    27   11   13 1
    28   11   14 1
    29   13   39 1
    30   13   40 1
    31   14   15 1
    32   14   41 1
    33   14   42 1
    34   15   21 1
    35   15   16 1
    36   15   59 1
    37   16   17 1
    38   16   43 1
    39   16   44 1
    40   17   18 1
    41   17   45 1
    42   17   46 1
    43   18   19 1
    44   18   47 1
    45   18   48 1
    46   19   20 1
    47   19   21 1
    48   19   22 1
    49   21   49 1
    50   21   50 1
    51   22   23 1
    52   22   51 1
    53   22   52 1
    54   23   53 1
    55   24   25 1
    56   24   54 1
    57   24   58 1
    58   25   55 1
    59   25   56 1
    60   25   57 1
@<TRIPOS>MOLECULE
ZINC11825644
   34    36     0     0     0
SMALL
USER_CHARGES
(S)-(2-chlorophenyl)-[4-(4-chlorophenyl)thiazol-2-yl]methanamine
@<TRIPOS>ATOM
      1 C1         -0.0590    4.4966    0.0253 C.ar      1 <0>        -0.0951
      2 C2          1.1478    3.8219    0.0111 C.ar      1 <0>        -0.0718
      3 C3          1.1672    2.4401    0.0040 C.ar      1 <0>        -0.0948
      4 C4         -0.0215    1.7317    0.0116 C.ar      1 <0>        -0.0031
      5 C5         -1.2285    2.4073    0.0209 C.ar      1 <0>        -0.1439
      6 C6         -1.2466    3.7895    0.0329 C.ar      1 <0>        -0.1122
      7 C7         -2.5236    1.6366    0.0234 C.3       1 <0>         0.1979
      8 H1         -2.4082    0.7304   -0.5713 H         1 <0>         0.1781
      9 C8         -2.8849    1.2661    1.4387 C.2       1 <0>        -0.0074
     10 N1         -2.7980    0.0992    2.0294 N.2       1 <0>        -0.4346
     11 C9         -3.1596   -0.0647    3.2923 C.2       1 <0>         0.1051
     12 C10        -3.6310    1.0270    3.9705 C.2       1 <0>        -0.1485
     13 S1         -3.5145    2.2787    2.7007 S.3       1 <0>         0.0963
     14 C11        -3.0568   -1.3896    3.9518 C.ar      1 <0>        -0.0399
     15 C12        -2.4828   -2.4645    3.2756 C.ar      1 <0>        -0.0686
     16 C13        -2.3856   -3.6938    3.8951 C.ar      1 <0>        -0.1113
     17 C14        -2.8658   -3.8626    5.1825 C.ar      1 <0>        -0.0190
     18 C15        -3.4416   -2.7993    5.8565 C.ar      1 <0>        -0.1074
     19 C16        -3.5392   -1.5648    5.2476 C.ar      1 <0>        -0.0863
     20 Cl1        -2.7460   -5.4131    5.9541 Cl        1 <0>        -0.0525
     21 Cl2         0.0021   -0.0041    0.0020 Cl        1 <0>        -0.0298
     22 H2         -0.0736    5.5765    0.0302 H         1 <0>         0.1469
     23 H3          2.0755    4.3749    0.0053 H         1 <0>         0.1494
     24 H4          2.1099    1.9132   -0.0078 H         1 <0>         0.1509
     25 H5         -2.1889    4.3171    0.0436 H         1 <0>         0.1286
     26 H6         -3.9734    1.1099    4.9915 H         1 <0>         0.2157
     27 H7         -2.1113   -2.3348    2.2698 H         1 <0>         0.1398
     28 H8         -1.9372   -4.5264    3.3734 H         1 <0>         0.1410
     29 H9         -3.8154   -2.9362    6.8605 H         1 <0>         0.1435
     30 H10        -3.9889   -0.7360    5.7741 H         1 <0>         0.1356
     31 H11        -4.4532    1.9514   -0.6214 H         1 <0>         0.4488
     32 H12        -3.7156    3.3146   -0.0186 H         1 <0>         0.4343
     33 N2         -3.5791    2.4725   -0.5753 N.4       1 <0>        -0.6411
     34 H13        -3.2986    2.7410   -1.5258 H         1 <0>         0.4555
@<TRIPOS>BOND
     1    1    6 ar
     2    1    2 ar
     3    1   22 1
     4    2    3 ar
     5    2   23 1
     6    3    4 ar
     7    3   24 1
     8    4    5 ar
     9    4   21 1
    10    5    6 ar
    11    5    7 1
    12    6   25 1
    13    7    8 1
    14    7    9 1
    15    7   33 1
    16    9   13 1
    17    9   10 2
    18   10   11 1
    19   11   12 2
    20   11   14 1
    21   12   13 1
    22   12   26 1
    23   14   19 ar
    24   14   15 ar
    25   15   16 ar
    26   15   27 1
    27   16   17 ar
    28   16   28 1
    29   17   18 ar
    30   17   20 1
    31   18   19 ar
    32   18   29 1
    33   19   30 1
    34   31   33 1
    35   32   33 1
    36   33   34 1
@<TRIPOS>MOLECULE
ZINC32204814
   35    36     0     0     0
SMALL
USER_CHARGES
(2S)-2-(4-bromophenyl)-2-(4-methylphenoxy)ethanamine
@<TRIPOS>ATOM
      1 C1         -2.7113   -1.9488    4.6240 C.3       1 <0>        -0.1261
      2 C2         -2.7562   -1.0530    3.4131 C.ar      1 <0>        -0.0995
      3 C3         -3.5126    0.1042    3.4383 C.ar      1 <0>        -0.0656
      4 C4         -3.5553    0.9271    2.3295 C.ar      1 <0>        -0.1302
      5 C5         -2.8386    0.5916    1.1900 C.ar      1 <0>         0.0932
      6 C6         -2.0851   -0.5730    1.1653 C.ar      1 <0>        -0.2446
      7 C7         -2.0414   -1.3898    2.2785 C.ar      1 <0>        -0.0731
      8 O1         -2.8791    1.3995    0.0980 O.3       1 <0>        -0.3019
      9 C8         -2.2019    0.9408   -1.0738 C.3       1 <0>         0.1051
     10 H1         -2.1590   -0.1555   -0.9947 H         1 <0>         0.1118
     11 C9         -0.8035    1.5588   -1.1296 C.3       1 <0>        -0.0164
     12 N1         -0.0043    1.0646   -0.0004 N.4       1 <0>        -0.6907
     13 C10        -2.9813    1.3501   -2.2970 C.ar      1 <0>        -0.1062
     14 C11        -3.5775    2.5962   -2.3514 C.ar      1 <0>        -0.0789
     15 C12        -4.2883    2.9739   -3.4750 C.ar      1 <0>        -0.0895
     16 C13        -4.4119    2.1009   -4.5408 C.ar      1 <0>        -0.0714
     17 C14        -3.8195    0.8522   -4.4838 C.ar      1 <0>        -0.0882
     18 C15        -3.1045    0.4774   -3.3619 C.ar      1 <0>        -0.0923
     19 Br1        -5.3898    2.6146   -6.0757 Br        1 <0>        -0.0253
     20 H2         -3.3370   -1.5200    5.4207 H         1 <0>         0.0731
     21 H3         -1.6735   -2.0342    4.9786 H         1 <0>         0.0758
     22 H4         -3.0906   -2.9461    4.3566 H         1 <0>         0.0770
     23 H5         -4.0701    0.3652    4.3257 H         1 <0>         0.1405
     24 H6         -4.1460    1.8311    2.3498 H         1 <0>         0.1402
     25 H7         -1.5298   -0.8386    0.2778 H         1 <0>         0.1212
     26 H8         -1.4513   -2.2942    2.2612 H         1 <0>         0.1346
     27 H9         -0.3159    1.2778   -2.0747 H         1 <0>         0.1497
     28 H10        -0.8841    2.6542   -1.0702 H         1 <0>         0.1451
     29 H11         1.0011    1.5090   -0.0406 H         1 <0>         0.4628
     30 H12         0.0763   -0.0308   -0.0599 H         1 <0>         0.4520
     31 H13        -3.4844    3.2761   -1.5175 H         1 <0>         0.1392
     32 H14        -4.7504    3.9491   -3.5192 H         1 <0>         0.1426
     33 H15        -3.9160    0.1702   -5.3156 H         1 <0>         0.1435
     34 H16        -2.6422   -0.4977   -3.3172 H         1 <0>         0.1360
     35 H17        -0.4919    1.3456    0.9447 H         1 <0>         0.4566
@<TRIPOS>BOND
     1    1    2 1
     2    1   20 1
     3    1   21 1
     4    1   22 1
     5    2    7 ar
     6    2    3 ar
     7    3    4 ar
     8    3   23 1
     9    4    5 ar
    10    4   24 1
    11    5    6 ar
    12    5    8 1
    13    6    7 ar
    14    6   25 1
    15    7   26 1
    16    8    9 1
    17    9   10 1
    18    9   11 1
    19    9   13 1
    20   11   12 1
    21   11   27 1
    22   11   28 1
    23   12   29 1
    24   12   30 1
    25   12   35 1
    26   13   18 ar
    27   13   14 ar
    28   14   15 ar
    29   14   31 1
    30   15   16 ar
    31   15   32 1
    32   16   17 ar
    33   16   19 1
    34   17   18 ar
    35   17   33 1
    36   18   34 1
@<TRIPOS>MOLECULE
ZINC42916216
   35    36     0     0     0
SMALL
USER_CHARGES

@<TRIPOS>ATOM
      1 C1         -0.1028    1.5508    0.1456 C.3       1 <0>        -0.1858
      2 C2         -0.0989    0.0212    0.1134 C.3       1 <0>         0.0079
      3 H1         -1.1193   -0.3471    0.2197 H         1 <0>         0.1571
      4 C3          0.7578   -0.5111    1.2638 C.3       1 <0>         0.1155
      5 H2          1.7782   -0.1428    1.1575 H         1 <0>         0.1125
      6 C4          0.1871   -0.0378    2.5758 C.ar      1 <0>        -0.1320
      7 C5         -0.8285   -0.7511    3.1847 C.ar      1 <0>        -0.0539
      8 C6         -1.3523   -0.3183    4.3881 C.ar      1 <0>        -0.1525
      9 C7         -0.8595    0.8303    4.9839 C.ar      1 <0>         0.1305
     10 C8          0.1578    1.5439    4.3732 C.ar      1 <0>        -0.1513
     11 C9          0.6836    1.1063    3.1724 C.ar      1 <0>        -0.0683
     12 F1         -1.3711    1.2546    6.1601 F         1 <0>        -0.1258
     13 O1          0.7614   -1.9398    1.2337 O.3       1 <0>        -0.2921
     14 C10         1.7551   -2.5395    0.5263 C.ar      1 <0>         0.1075
     15 C11         2.7542   -1.7726   -0.0551 C.ar      1 <0>        -0.2485
     16 C12         3.7631   -2.3841   -0.7737 C.ar      1 <0>        -0.0403
     17 C13         3.7776   -3.7603   -0.9137 C.ar      1 <0>        -0.1185
     18 C14         2.7819   -4.5270   -0.3351 C.ar      1 <0>        -0.0359
     19 C15         1.7746   -3.9199    0.3895 C.ar      1 <0>        -0.1287
     20 Br1         5.1600   -4.5948   -1.8979 Br        1 <0>        -0.0196
     21 N1          0.4574   -0.4402   -1.1656 N.4       1 <0>        -0.6405
     22 H3          0.9176    1.9190    0.0393 H         1 <0>         0.0863
     23 H4         -0.7132    1.9300   -0.6740 H         1 <0>         0.0945
     24 H5         -0.5156    1.8932    1.0946 H         1 <0>         0.1150
     25 H6         -1.2130   -1.6468    2.7196 H         1 <0>         0.1417
     26 H7         -2.1460   -0.8755    4.8634 H         1 <0>         0.1466
     27 H8          0.5427    2.4401    4.8369 H         1 <0>         0.1478
     28 H9          1.4801    1.6603    2.6980 H         1 <0>         0.1384
     29 H10         2.7430   -0.6981    0.0537 H         1 <0>         0.1360
     30 H11         4.5410   -1.7873   -1.2267 H         1 <0>         0.1468
     31 H12         2.7949   -5.6012   -0.4459 H         1 <0>         0.1522
     32 H13         1.0003   -4.5191    0.8454 H         1 <0>         0.1515
     33 H14         1.4019   -0.0993   -1.2640 H         1 <0>         0.4305
     34 H15         0.4599   -1.4490   -1.1868 H         1 <0>         0.4348
     35 H16        -0.1076   -0.0892   -1.9243 H         1 <0>         0.4405
@<TRIPOS>BOND
     1    1    2 1
     2    1   22 1
     3    1   23 1
     4    1   24 1
     5    2    3 1
     6    2    4 1
     7    2   21 1
     8    4    5 1
     9    4    6 1
    10    4   13 1
    11    6   11 ar
    12    6    7 ar
    13    7    8 ar
    14    7   25 1
    15    8    9 ar
    16    8   26 1
    17    9   10 ar
    18    9   12 1
    19   10   11 ar
    20   10   27 1
    21   11   28 1
    22   13   14 1
    23   14   19 ar
    24   14   15 ar
    25   15   16 ar
    26   15   29 1
    27   16   17 ar
    28   16   30 1
    29   17   18 ar
    30   17   20 1
    31   18   19 ar
    32   18   31 1
    33   19   32 1
    34   21   33 1
    35   21   34 1
    36   21   35 1
@<TRIPOS>MOLECULE
ZINC43249975
   35    36     0     0     0
SMALL
USER_CHARGES

@<TRIPOS>ATOM
      1 C1         -0.2632    1.7413    0.1377 C.3       1 <0>        -0.1215
      2 C2         -0.3227    0.2412    0.0059 C.2       1 <0>        -0.0716
      3 C3         -0.4853   -0.3481   -1.2339 C.2       1 <0>        -0.1756
      4 C4         -0.5348   -1.7001   -1.3176 C.2       1 <0>        -0.1317
      5 S1         -0.3488   -2.1829    0.3911 S.3       1 <0>         0.1166
      6 C5         -0.2120   -0.5504    1.1006 C.2       1 <0>        -0.2561
      7 C6         -0.0238   -0.1550    2.5425 C.3       1 <0>         0.1648
      8 H1         -0.2462    0.9055    2.6605 H         1 <0>         0.1188
      9 C7          1.4238   -0.4220    2.9598 C.3       1 <0>         0.0064
     10 H2          1.6462   -1.4826    2.8419 H         1 <0>         0.1575
     11 C8          1.6149   -0.0206    4.4238 C.3       1 <0>        -0.1928
     12 N1          2.3305    0.3655    2.1138 N.4       1 <0>        -0.6295
     13 O1         -0.9058   -0.9211    3.3655 O.3       1 <0>        -0.2668
     14 C9         -1.4177   -0.3038    4.4630 C.ar      1 <0>         0.1302
     15 C10        -1.1087    1.0238    4.7208 C.ar      1 <0>        -0.2031
     16 C11        -1.6298    1.6498    5.8367 C.ar      1 <0>        -0.0576
     17 C12        -2.4593    0.9548    6.6973 C.ar      1 <0>        -0.1214
     18 C13        -2.7695   -0.3695    6.4439 C.ar      1 <0>         0.0075
     19 C14        -2.2549   -0.9990    5.3243 C.ar      1 <0>        -0.0602
     20 Cl1        -2.6500   -2.6583    5.0014 Cl        1 <0>        -0.0196
     21 Cl2        -3.8108   -1.2394    7.5268 Cl        1 <0>        -0.0192
     22 H3          0.7708    2.0734    0.0450 H         1 <0>         0.0720
     23 H4         -0.8638    2.1992   -0.6483 H         1 <0>         0.0877
     24 H5         -0.6537    2.0362    1.1117 H         1 <0>         0.0693
     25 H6         -0.5719    0.2596   -2.1225 H         1 <0>         0.1475
     26 H7         -0.6558   -2.3234   -2.1912 H         1 <0>         0.1982
     27 H8          0.9421   -0.6050    5.0515 H         1 <0>         0.1116
     28 H9          2.6462   -0.2109    4.7211 H         1 <0>         0.0966
     29 H10         1.3925    1.0399    4.5418 H         1 <0>         0.0884
     30 H11         2.1246    1.3472    2.2230 H         1 <0>         0.4320
     31 H12         3.2851    0.1894    2.3890 H         1 <0>         0.4440
     32 H13        -0.4607    1.5677    4.0496 H         1 <0>         0.1388
     33 H14        -1.3887    2.6832    6.0372 H         1 <0>         0.1488
     34 H15        -2.8654    1.4464    7.5690 H         1 <0>         0.1526
     35 H16         2.2045    0.1007    1.1483 H         1 <0>         0.4373
@<TRIPOS>BOND
     1    1    2 1
     2    1   22 1
     3    1   23 1
     4    1   24 1
     5    2    6 2
     6    2    3 1
     7    3    4 2
     8    3   25 1
     9    4    5 1
    10    4   26 1
    11    5    6 1
    12    6    7 1
    13    7    8 1
    14    7    9 1
    15    7   13 1
    16    9   10 1
    17    9   11 1
    18    9   12 1
    19   11   27 1
    20   11   28 1
    21   11   29 1
    22   12   30 1
    23   12   31 1
    24   12   35 1
    25   13   14 1
    26   14   19 ar
    27   14   15 ar
    28   15   16 ar
    29   15   32 1
    30   16   17 ar
    31   16   33 1
    32   17   18 ar
    33   17   34 1
    34   18   19 ar
    35   18   21 1
    36   19   20 1
@<TRIPOS>MOLECULE
ZINC51726431
   31    32     0     0     0
SMALL
USER_CHARGES

@<TRIPOS>ATOM
      1 C1         -0.0187    1.5258    0.0104 C.3       1 <0>        -0.1526
      2 C2          0.0021   -0.0041    0.0020 C.3       1 <0>        -0.0557
      3 C3          0.7309   -0.5033    1.2229 C.2       1 <0>         0.0502
      4 C4          0.1710   -0.7847    2.4131 C.2       1 <0>        -0.2126
      5 C5          1.2134   -1.2189    3.2638 C.2       1 <0>        -0.1107
      6 C6          2.3481   -1.1768    2.5426 C.2       1 <0>        -0.1201
      7 O1          2.0489   -0.7481    1.3055 O.3       1 <0>        -0.1759
      8 C7          3.7212   -1.5524    3.0372 C.3       1 <0>         0.1964
      9 H1          3.7358   -1.5220    4.1267 H         1 <0>         0.1761
     10 C8          4.0606   -2.9439    2.5688 C.ar      1 <0>        -0.1317
     11 C9          4.8809   -3.1227    1.4708 C.ar      1 <0>        -0.0878
     12 C10         5.1925   -4.3998    1.0409 C.ar      1 <0>        -0.0778
     13 C11         4.6827   -5.4985    1.7095 C.ar      1 <0>        -0.0504
     14 C12         3.8626   -5.3201    2.8072 C.ar      1 <0>        -0.0844
     15 C13         3.5558   -4.0424    3.2411 C.ar      1 <0>         0.0053
     16 Cl1         2.5318   -3.8181    4.6249 Cl        1 <0>        -0.0293
     17 Br1         6.3148   -4.6442   -0.4613 Br        1 <0>        -0.0047
     18 N1          4.7090   -0.6028    2.5075 N.4       1 <0>        -0.6366
     19 H2          1.0039    1.9031    0.0027 H         1 <0>         0.0574
     20 H3         -0.5459    1.8868   -0.8726 H         1 <0>         0.0762
     21 H4         -0.5289    1.8773    0.9072 H         1 <0>         0.0642
     22 H5         -1.0205   -0.3814    0.0098 H         1 <0>         0.1066
     23 H6          0.5123   -0.3556   -0.8948 H         1 <0>         0.0892
     24 H7         -0.8743   -0.6956    2.6698 H         1 <0>         0.1639
     25 H8          1.1172   -1.5253    4.2950 H         1 <0>         0.1594
     26 H9          5.2784   -2.2651    0.9483 H         1 <0>         0.1366
     27 H10         4.9254   -6.4957    1.3732 H         1 <0>         0.1589
     28 H11         3.4643   -6.1778    3.3289 H         1 <0>         0.1609
     29 H12         5.6284   -0.8543    2.8387 H         1 <0>         0.4442
     30 H13         4.6955   -0.6309    1.4990 H         1 <0>         0.4381
     31 H14         4.4818    0.3289    2.8211 H         1 <0>         0.4469
@<TRIPOS>BOND
     1    1    2 1
     2    1   19 1
     3    1   20 1
     4    1   21 1
     5    2    3 1
     6    2   22 1
     7    2   23 1
     8    3    7 1
     9    3    4 2
    10    4    5 1
    11    4   24 1
    12    5    6 2
    13    5   25 1
    14    6    7 1
    15    6    8 1
    16    8    9 1
    17    8   10 1
    18    8   18 1
    19   10   15 ar
    20   10   11 ar
    21   11   12 ar
    22   11   26 1
    23   12   13 ar
    24   12   17 1
    25   13   14 ar
    26   13   27 1
    27   14   15 ar
    28   14   28 1
    29   15   16 1
    30   18   29 1
    31   18   30 1
    32   18   31 1
@<TRIPOS>MOLECULE
ZINC04018672
   52    54     0     0     0
SMALL
USER_CHARGES
N-(2-dimethylamino-4-quinolyl)-2-(1-phenylethylamino)acetamide
@<TRIPOS>ATOM
      1 C1          5.1846   -8.1250    0.8960 C.3       1 <0>        -0.1803
      2 C2          4.7296   -7.7216   -0.5080 C.3       1 <0>         0.0877
      3 H1          5.5274   -7.1683   -1.0035 H         1 <0>         0.1504
      4 C3          4.4055   -8.9583   -1.3058 C.ar      1 <0>        -0.1552
      5 C4          3.1927   -9.5973   -1.1281 C.ar      1 <0>        -0.1223
      6 C5          2.8936  -10.7292   -1.8631 C.ar      1 <0>        -0.1041
      7 C6          3.8111  -11.2274   -2.7692 C.ar      1 <0>        -0.0854
      8 C7          5.0261  -10.5914   -2.9430 C.ar      1 <0>        -0.1037
      9 C8          5.3234   -9.4570   -2.2112 C.ar      1 <0>        -0.0854
     10 C9          3.9005   -5.4685   -0.1939 C.3       1 <0>        -0.0238
     11 C10         2.6506   -4.6319   -0.0993 C.2       1 <0>         0.5118
     12 O1          1.5614   -5.1552   -0.2022 O.2       1 <0>        -0.4897
     13 N1          2.7432   -3.3021    0.0997 N.am      1 <0>        -0.6482
     14 C11         1.5946   -2.5166    0.0974 C.ar      1 <0>         0.3108
     15 C12         0.3989   -3.0045    0.5864 C.ar      1 <0>        -0.2312
     16 C13        -0.7381   -2.1909    0.5711 C.ar      1 <0>         0.5082
     17 C14         0.4261   -0.4298   -0.3888 C.ar      1 <0>         0.1855
     18 C15         1.6176   -1.1927   -0.4064 C.ar      1 <0>        -0.1266
     19 C16         2.7942   -0.6305   -0.9192 C.ar      1 <0>        -0.0631
     20 C17         2.7794    0.6463   -1.3960 C.ar      1 <0>        -0.1054
     21 C18         1.6088    1.3999   -1.3801 C.ar      1 <0>        -0.0270
     22 C19         0.4486    0.8834   -0.8888 C.ar      1 <0>        -0.1446
     23 N2         -1.9344   -2.6912    1.0645 N.pl3     1 <0>        -0.5696
     24 C20        -1.9935   -4.0537    1.5994 C.3       1 <0>         0.0615
     25 C21        -3.1385   -1.8568    1.0506 C.3       1 <0>         0.0481
     26 H2          6.0721   -8.7537    0.8237 H         1 <0>         0.1146
     27 H3          5.4190   -7.2305    1.4730 H         1 <0>         0.0832
     28 H4          4.3868   -8.6783    1.3914 H         1 <0>         0.0861
     29 H5          2.4774   -9.2102   -0.4175 H         1 <0>         0.1196
     30 H6          1.9442  -11.2259   -1.7275 H         1 <0>         0.1371
     31 H7          3.5785  -12.1133   -3.3415 H         1 <0>         0.1388
     32 H8          5.7429  -10.9806   -3.6509 H         1 <0>         0.1401
     33 H9          6.2726   -8.9601   -2.3470 H         1 <0>         0.1353
     34 H10         4.5092   -5.1192   -1.0279 H         1 <0>         0.1757
     35 H11         4.4681   -5.3797    0.7324 H         1 <0>         0.1754
     36 H12         3.6105   -2.8926    0.2446 H         1 <0>         0.4382
     37 H13         0.3424   -4.0090    0.9791 H         1 <0>         0.1938
     38 H14         3.7081   -1.2057   -0.9361 H         1 <0>         0.1459
     39 H15         3.6868    1.0786   -1.7913 H         1 <0>         0.1542
     40 H16         1.6211    2.4094   -1.7637 H         1 <0>         0.1574
     41 H17        -0.4521    1.4792   -0.8876 H         1 <0>         0.1564
     42 H18        -0.9911   -4.4815    1.6158 H         1 <0>         0.0935
     43 H19        -2.3947   -4.0292    2.6126 H         1 <0>         0.0983
     44 H20        -2.6388   -4.6643    0.9678 H         1 <0>         0.0947
     45 H21        -3.6734   -2.0065    0.1127 H         1 <0>         0.0951
     46 H22        -3.7828   -2.1348    1.8847 H         1 <0>         0.1157
     47 H23        -2.8552   -0.8084    1.1440 H         1 <0>         0.0800
     48 N3          3.5235   -6.8779   -0.4114 N.4       1 <0>        -0.5084
     49 H24         2.9473   -7.1996    0.3752 H         1 <0>         0.4382
     50 H25         2.9861   -6.9541   -1.2830 H         1 <0>         0.4428
     51 N4         -0.7680   -0.9171    0.0996 N.ar      1 <0>        -0.5647
     52 H26        -1.6257   -0.3526    0.1065 H         1 <0>         0.4645
@<TRIPOS>BOND
     1    1    2 1
     2    1   26 1
     3    1   27 1
     4    1   28 1
     5    2    3 1
     6    2    4 1
     7    2   48 1
     8    4    9 ar
     9    4    5 ar
    10    5    6 ar
    11    5   29 1
    12    6    7 ar
    13    6   30 1
    14    7    8 ar
    15    7   31 1
    16    8    9 ar
    17    8   32 1
    18    9   33 1
    19   10   11 1
    20   10   34 1
    21   10   35 1
    22   10   48 1
    23   11   12 2
    24   11   13 am
    25   13   14 1
    26   13   36 1
    27   14   18 ar
    28   14   15 ar
    29   15   16 ar
    30   15   37 1
    31   16   23 1
    32   16   51 ar
    33   17   22 ar
    34   17   18 ar
    35   17   51 ar
    36   18   19 ar
    37   19   20 ar
    38   19   38 1
    39   20   21 ar
    40   20   39 1
    41   21   22 ar
    42   21   40 1
    43   22   41 1
    44   23   24 1
    45   23   25 1
    46   24   42 1
    47   24   43 1
    48   24   44 1
    49   25   45 1
    50   25   46 1
    51   25   47 1
    52   48   49 1
    53   48   50 1
    54   51   52 1
@<TRIPOS>MOLECULE
ZINC35586605
   38    39     0     0     0
SMALL
USER_CHARGES

@<TRIPOS>ATOM
      1 C1         -3.1783   -1.8145   -1.3596 C.3       1 <0>        -0.1593
      2 C2         -1.7188   -1.6162   -0.9456 C.3       1 <0>        -0.1494
      3 C3         -0.8008   -2.2447   -1.9959 C.3       1 <0>        -0.0154
      4 N1          0.6005   -2.0543   -1.5984 N.4       1 <0>        -0.5162
      5 C4          1.4831   -2.5481   -2.6638 C.3       1 <0>         0.0869
      6 H1          1.2237   -2.0627   -3.6046 H         1 <0>         0.1596
      7 C5          2.9372   -2.2300   -2.3098 C.3       1 <0>        -0.0891
      8 C6          3.1360   -0.7363   -2.2976 C.cat     1 <0>         0.2533
      9 N2          3.4012    0.0139   -3.3550 N.pl3     1 <0>        -0.4649
     10 H2          3.5008   -0.3030   -4.2663 H         1 <0>         0.4721
     11 C7          3.5092    1.2956   -2.9472 C.2       1 <0>         0.0409
     12 C8          3.3039    1.3121   -1.6151 C.2       1 <0>         0.0376
     13 N3          3.0684    0.0409   -1.2287 N.pl3     1 <0>        -0.4886
     14 C9          1.3150   -4.0391   -2.8047 C.ar      1 <0>        -0.1525
     15 C10         1.1716   -4.8277   -1.6784 C.ar      1 <0>        -0.1121
     16 C11         1.0169   -6.1952   -1.8072 C.ar      1 <0>        -0.0731
     17 C12         1.0056   -6.7745   -3.0632 C.ar      1 <0>        -0.0592
     18 C13         1.1492   -5.9849   -4.1899 C.ar      1 <0>        -0.0750
     19 C14         1.2985   -4.6170   -4.0604 C.ar      1 <0>        -0.0726
     20 Br1         0.7947   -8.6454   -3.2400 Br        1 <0>         0.0036
     21 H3         -3.3503   -1.3375   -2.3245 H         1 <0>         0.0695
     22 H4         -3.3922   -2.8804   -1.4379 H         1 <0>         0.0717
     23 H5         -3.8323   -1.3667   -0.6113 H         1 <0>         0.0841
     24 H6         -1.5050   -0.5503   -0.8672 H         1 <0>         0.0847
     25 H7         -1.5469   -2.0931    0.0194 H         1 <0>         0.0901
     26 H8         -1.0147   -3.3106   -2.0742 H         1 <0>         0.1438
     27 H9         -0.9728   -1.7677   -2.9608 H         1 <0>         0.1378
     28 H10         0.7760   -1.0727   -1.4442 H         1 <0>         0.4135
     29 H11         3.1683   -2.6354   -1.3247 H         1 <0>         0.1479
     30 H12         3.5982   -2.6785   -3.0514 H         1 <0>         0.1725
     31 H13         3.7213    2.1503   -3.5724 H         1 <0>         0.2394
     32 H14         3.3211    2.1824   -0.9759 H         1 <0>         0.2397
     33 H15         1.1807   -4.3754   -0.6978 H         1 <0>         0.1296
     34 H16         0.9052   -6.8113   -0.9272 H         1 <0>         0.1525
     35 H17         1.1404   -6.4368   -5.1708 H         1 <0>         0.1542
     36 H18         1.4065   -3.9999   -4.9402 H         1 <0>         0.1461
     37 H19         0.7812   -2.5660   -0.7477 H         1 <0>         0.4305
     38 H20         2.8837   -0.2529   -0.3229 H         1 <0>         0.4657
@<TRIPOS>BOND
     1    1    2 1
     2    1   21 1
     3    1   22 1
     4    1   23 1
     5    2    3 1
     6    2   24 1
     7    2   25 1
     8    3    4 1
     9    3   26 1
    10    3   27 1
    11    4    5 1
    12    4   28 1
    13    4   37 1
    14    5    6 1
    15    5    7 1
    16    5   14 1
    17    7    8 1
    18    7   29 1
    19    7   30 1
    20    8   13 2
    21    8    9 1
    22    9   10 1
    23    9   11 1
    24   11   12 2
    25   11   31 1
    26   12   13 1
    27   12   32 1
    28   13   38 1
    29   14   19 ar
    30   14   15 ar
    31   15   16 ar
    32   15   33 1
    33   16   17 ar
    34   16   34 1
    35   17   18 ar
    36   17   20 1
    37   18   19 ar
    38   18   35 1
    39   19   36 1
@<TRIPOS>MOLECULE
ZINC42579236
   45    45     0     0     0
SMALL
USER_CHARGES

@<TRIPOS>ATOM
      1 C1          1.1921   -1.6821   -4.0676 C.3       1 <0>        -0.1569
      2 C2          0.6546   -2.4662   -2.8688 C.3       1 <0>        -0.1158
      3 C3          1.8231   -2.9262   -1.9949 C.3       1 <0>        -0.1795
      4 C4         -0.2742   -1.5694   -2.0478 C.3       1 <0>        -0.0545
      5 N1         -0.8878   -2.3563   -0.9698 N.4       1 <0>        -0.3972
      6 C5         -1.6343   -1.4622   -0.0747 C.3       1 <0>         0.0568
      7 H1         -1.9550   -2.0162    0.8075 H         1 <0>         0.1759
      8 C6         -0.7348   -0.3004    0.3519 C.3       1 <0>        -0.0323
      9 N2          0.4997   -0.8297    0.9468 N.4       1 <0>        -0.6507
     10 C7         -2.8426   -0.9233   -0.7963 C.ar      1 <0>        -0.1445
     11 C8         -2.6885    0.0323   -1.7835 C.ar      1 <0>        -0.1033
     12 C9         -3.7958    0.5277   -2.4458 C.ar      1 <0>        -0.0842
     13 C10        -5.0593    0.0670   -2.1212 C.ar      1 <0>         0.0049
     14 C11        -5.2135   -0.8902   -1.1330 C.ar      1 <0>        -0.0349
     15 C12        -4.1035   -1.3888   -0.4747 C.ar      1 <0>        -0.0628
     16 Cl1        -6.7984   -1.4689   -0.7242 Cl        1 <0>         0.0033
     17 Cl2        -6.4506    0.6893   -2.9523 Cl        1 <0>         0.0077
     18 C13        -1.8049   -3.3475   -1.5481 C.3       1 <0>         0.0297
     19 C14        -2.5797   -4.0413   -0.4259 C.3       1 <0>        -0.1984
     20 C15        -2.7873   -2.6459   -2.4880 C.3       1 <0>        -0.2128
     21 H2          1.8537   -2.3210   -4.6526 H         1 <0>         0.0877
     22 H3          0.3596   -1.3544   -4.6903 H         1 <0>         0.0733
     23 H4          1.7459   -0.8123   -3.7142 H         1 <0>         0.0692
     24 H5          0.1008   -3.3360   -3.2223 H         1 <0>         0.1055
     25 H6          2.3769   -2.0564   -1.6414 H         1 <0>         0.0706
     26 H7          1.4402   -3.4848   -1.1408 H         1 <0>         0.0479
     27 H8          2.4848   -3.5651   -2.5798 H         1 <0>         0.1010
     28 H9          0.3001   -0.7490   -1.6172 H         1 <0>         0.1217
     29 H10        -1.0547   -1.1669   -2.6934 H         1 <0>         0.1627
     30 H11        -0.4872    0.3063   -0.5192 H         1 <0>         0.1633
     31 H12        -1.2575    0.3134    1.0854 H         1 <0>         0.1912
     32 H13         0.2669   -1.4574    1.7017 H         1 <0>         0.4478
     33 H14         1.0246   -1.3286    0.2442 H         1 <0>         0.4235
     34 H15        -1.7023    0.3922   -2.0371 H         1 <0>         0.1459
     35 H16        -3.6748    1.2747   -3.2163 H         1 <0>         0.1647
     36 H17        -4.2228   -2.1384    0.2935 H         1 <0>         0.1625
     37 H18        -1.2335   -4.0886   -2.1071 H         1 <0>         0.1506
     38 H19        -3.2149   -3.3144    0.0802 H         1 <0>         0.0854
     39 H20        -3.1985   -4.8334   -0.8475 H         1 <0>         0.1199
     40 H21        -1.8775   -4.4703    0.2890 H         1 <0>         0.0839
     41 H22        -2.3877   -1.6719   -2.7702 H         1 <0>         0.0929
     42 H23        -2.9310   -3.2526   -3.3822 H         1 <0>         0.1018
     43 H24        -3.7433   -2.5135   -1.9814 H         1 <0>         0.1004
     44 H25         1.0554   -0.0666    1.3031 H         1 <0>         0.4645
     45 H26        -0.1666   -2.8302   -0.4469 H         1 <0>         0.4114
@<TRIPOS>BOND
     1    1    2 1
     2    1   21 1
     3    1   22 1
     4    1   23 1
     5    2    3 1
     6    2    4 1
     7    2   24 1
     8    3   25 1
     9    3   26 1
    10    3   27 1
    11    4    5 1
    12    4   28 1
    13    4   29 1
    14    5    6 1
    15    5   18 1
    16    5   45 1
    17    6    7 1
    18    6    8 1
    19    6   10 1
    20    8    9 1
    21    8   30 1
    22    8   31 1
    23    9   32 1
    24    9   33 1
    25    9   44 1
    26   10   15 ar
    27   10   11 ar
    28   11   12 ar
    29   11   34 1
    30   12   13 ar
    31   12   35 1
    32   13   14 ar
    33   13   17 1
    34   14   15 ar
    35   14   16 1
    36   15   36 1
    37   18   19 1
    38   18   20 1
    39   18   37 1
    40   19   38 1
    41   19   39 1
    42   19   40 1
    43   20   41 1
    44   20   42 1
    45   20   43 1
@<TRIPOS>MOLECULE
ZINC43253346
   51    52     0     0     0
SMALL
USER_CHARGES

@<TRIPOS>ATOM
      1 C1          0.4822    1.6190    0.0240 C.3       1 <0>        -0.1748
      2 C2          0.3046    0.0995    0.0005 C.3       1 <0>        -0.1478
      3 C3          0.9388   -0.5074    1.2537 C.3       1 <0>         0.0272
      4 H1          1.9800   -0.1926    1.3229 H         1 <0>         0.1453
      5 C4          0.8719   -2.0337    1.1708 C.3       1 <0>         0.1638
      6 H2         -0.1693   -2.3486    1.1016 H         1 <0>         0.1446
      7 C5          1.6211   -2.5039   -0.0493 C.2       1 <0>        -0.2499
      8 C6          1.1345   -3.0352   -1.1970 C.2       1 <0>        -0.0730
      9 C7          2.0191   -3.3996   -2.1954 C.2       1 <0>        -0.1551
     10 C8          3.3479   -3.2141   -1.9956 C.2       1 <0>        -0.0815
     11 S1          3.3790   -2.4980   -0.3605 S.3       1 <0>         0.0811
     12 Cl1         4.6738   -3.5733   -3.0571 Cl        1 <0>         0.0536
     13 N1          1.4808   -2.6165    2.3740 N.3       1 <0>        -0.5387
     14 C9          2.8212   -2.0608    2.6080 C.3       1 <0>        -0.0041
     15 C10         3.3950   -2.6475    3.8996 C.3       1 <0>        -0.0098
     16 N2          3.4659   -4.1101    3.7840 N.4       1 <0>        -0.3822
     17 C11         2.1169   -4.6525    3.5752 C.3       1 <0>        -0.0134
     18 C12         1.5325   -4.0824    2.2809 C.3       1 <0>         0.0269
     19 C13         4.0336   -4.6715    5.0170 C.3       1 <0>         0.0553
     20 C14         3.1451   -4.2961    6.2046 C.3       1 <0>        -0.1766
     21 C15         4.1076   -6.1950    4.8969 C.3       1 <0>        -0.1802
     22 C16         5.4395   -4.1081    5.2338 C.3       1 <0>        -0.1797
     23 N3          0.2085   -0.0491    2.4430 N.4       1 <0>        -0.6324
     24 H3          1.5449    1.8603    0.0467 H         1 <0>         0.0733
     25 H4          0.0304    2.0515   -0.8688 H         1 <0>         0.0909
     26 H5         -0.0022    2.0278    0.9107 H         1 <0>         0.0558
     27 H6         -0.7581   -0.1418   -0.0222 H         1 <0>         0.0976
     28 H7          0.7890   -0.3092   -0.8862 H         1 <0>         0.1159
     29 H8          0.0715   -3.1724   -1.3298 H         1 <0>         0.1516
     30 H9          1.6577   -3.8256   -3.1196 H         1 <0>         0.1580
     31 H10         3.4719   -2.3165    1.7718 H         1 <0>         0.0800
     32 H11         2.7545   -0.9767    2.6992 H         1 <0>         0.1195
     33 H12         4.3949   -2.2474    4.0675 H         1 <0>         0.1462
     34 H13         2.7513   -2.3801    4.7375 H         1 <0>         0.1447
     35 H14         2.1693   -5.7388    3.5026 H         1 <0>         0.1463
     36 H15         1.4797   -4.3747    4.4148 H         1 <0>         0.1448
     37 H16         0.5257   -4.4732    2.1335 H         1 <0>         0.1346
     38 H17         2.1620   -4.3714    1.4393 H         1 <0>         0.0788
     39 H18         2.1435   -4.6974    6.0502 H         1 <0>         0.0827
     40 H19         3.5663   -4.7126    7.1196 H         1 <0>         0.1094
     41 H20         3.0924   -3.2107    6.2902 H         1 <0>         0.0801
     42 H21         4.7407   -6.4624    4.0509 H         1 <0>         0.0833
     43 H22         4.5289   -6.6115    5.8119 H         1 <0>         0.1112
     44 H23         3.1061   -6.5963    4.7425 H         1 <0>         0.0831
     45 H24         5.3868   -3.0228    5.3194 H         1 <0>         0.0811
     46 H25         5.8608   -4.5247    6.1488 H         1 <0>         0.1113
     47 H26         6.0726   -4.3756    4.3878 H         1 <0>         0.0834
     48 H27        -0.7553   -0.3406    2.3790 H         1 <0>         0.4396
     49 H28         0.6267   -0.4494    3.2695 H         1 <0>         0.4355
     50 H29         0.2526    0.9574    2.4977 H         1 <0>         0.4411
     51 H30         4.0525   -4.3574    3.0011 H         1 <0>         0.4218
@<TRIPOS>BOND
     1    1    2 1
     2    1   24 1
     3    1   25 1
     4    1   26 1
     5    2    3 1
     6    2   27 1
     7    2   28 1
     8    3    4 1
     9    3    5 1
    10    3   23 1
    11    5    6 1
    12    5    7 1
    13    5   13 1
    14    7   11 1
    15    7    8 2
    16    8    9 1
    17    8   29 1
    18    9   10 2
    19    9   30 1
    20   10   11 1
    21   10   12 1
    22   13   18 1
    23   13   14 1
    24   14   15 1
    25   14   31 1
    26   14   32 1
    27   15   16 1
    28   15   33 1
    29   15   34 1
    30   16   17 1
    31   16   19 1
    32   16   51 1
    33   17   18 1
    34   17   35 1
    35   17   36 1
    36   18   37 1
    37   18   38 1
    38   19   20 1
    39   19   21 1
    40   19   22 1
    41   20   39 1
    42   20   40 1
    43   20   41 1
    44   21   42 1
    45   21   43 1
    46   21   44 1
    47   22   45 1
    48   22   46 1
    49   22   47 1
    50   23   48 1
    51   23   49 1
    52   23   50 1
@<TRIPOS>MOLECULE
ZINC52372717
   51    52     0     0     0
SMALL
USER_CHARGES

@<TRIPOS>ATOM
      1 C1         -2.7995    0.3748   -1.6780 C.3       1 <0>        -0.1610
      2 C2         -2.3017   -1.0660   -1.5467 C.3       1 <0>        -0.1201
      3 C3         -1.0331   -1.2455   -2.3829 C.3       1 <0>        -0.1498
      4 C4         -0.5353   -2.6863   -2.2516 C.3       1 <0>        -0.0220
      5 N1          0.6035   -2.8953   -3.1557 N.4       1 <0>        -0.3874
      6 C5          0.9998   -4.3095   -3.1253 C.3       1 <0>         0.0239
      7 C6          1.6564   -4.6753   -4.4315 C.2       1 <0>        -0.0844
      8 C7          0.9657   -4.4442   -5.6917 C.ar      1 <0>        -0.1200
      9 C8         -0.3186   -3.8914   -5.9096 C.ar      1 <0>        -0.1022
     10 C9         -0.8093   -3.7495   -7.1694 C.ar      1 <0>        -0.0886
     11 C10        -0.0754   -4.1377   -8.2825 C.ar      1 <0>        -0.0539
     12 C11         1.1823   -4.6810   -8.1121 C.ar      1 <0>        -0.0658
     13 C12         1.6908   -4.8306   -6.8396 C.ar      1 <0>        -0.0936
     14 S1          3.2115   -5.4623   -6.1793 S.3       1 <0>         0.1623
     15 C13         2.8851   -5.2119   -4.4448 C.2       1 <0>        -0.2274
     16 C14         3.7772   -5.5292   -3.2724 C.3       1 <0>         0.0797
     17 N2          3.5689   -6.9243   -2.8621 N.4       1 <0>        -0.6379
     18 C15         1.7323   -2.0610   -2.7224 C.3       1 <0>         0.0122
     19 H1          1.4107   -1.0217   -2.6539 H         1 <0>         0.1483
     20 C16         2.2205   -2.5352   -1.3522 C.3       1 <0>        -0.1818
     21 C17         2.8711   -2.1765   -3.7376 C.3       1 <0>        -0.1588
     22 C18         2.4297   -1.5687   -5.0706 C.3       1 <0>        -0.1743
     23 H2         -2.0295    1.0591   -1.3216 H         1 <0>         0.0606
     24 H3         -3.0202    0.5891   -2.7237 H         1 <0>         0.0603
     25 H4         -3.7033    0.5027   -1.0822 H         1 <0>         0.0708
     26 H5         -2.0809   -1.2803   -0.5010 H         1 <0>         0.0752
     27 H6         -3.0716   -1.7503   -1.9031 H         1 <0>         0.0745
     28 H7         -1.2538   -1.0312   -3.4286 H         1 <0>         0.0858
     29 H8         -0.2631   -0.5612   -2.0265 H         1 <0>         0.0902
     30 H9         -0.2218   -2.8702   -1.2240 H         1 <0>         0.1380
     31 H10        -1.3391   -3.3738   -2.5148 H         1 <0>         0.1342
     32 H11         1.7017   -4.4726   -2.3075 H         1 <0>         0.1388
     33 H12         0.1170   -4.9311   -2.9758 H         1 <0>         0.1510
     34 H13        -0.9158   -3.5791   -5.0657 H         1 <0>         0.1178
     35 H14        -1.7928   -3.3252   -7.3078 H         1 <0>         0.1479
     36 H15        -0.4856   -4.0158   -9.2741 H         1 <0>         0.1568
     37 H16         1.7632   -4.9873   -8.9695 H         1 <0>         0.1512
     38 H17         4.8190   -5.3866   -3.5595 H         1 <0>         0.1651
     39 H18         3.5351   -4.8662   -2.4418 H         1 <0>         0.1472
     40 H19         4.1662   -7.1367   -2.0772 H         1 <0>         0.4503
     41 H20         2.6045   -7.0563   -2.5964 H         1 <0>         0.4359
     42 H21         3.0407   -1.8995   -1.0187 H         1 <0>         0.1155
     43 H22         1.4017   -2.4779   -0.6349 H         1 <0>         0.0909
     44 H23         2.5668   -3.5660   -1.4266 H         1 <0>         0.0673
     45 H24         3.7449   -1.6413   -3.3659 H         1 <0>         0.1148
     46 H25         3.1231   -3.2270   -3.8830 H         1 <0>         0.0854
     47 H26         3.2017   -1.7390   -5.8209 H         1 <0>         0.0828
     48 H27         1.4998   -2.0371   -5.3932 H         1 <0>         0.0476
     49 H28         2.2731   -0.4971   -4.9471 H         1 <0>         0.0777
     50 H29         0.3381   -2.6405   -4.0953 H         1 <0>         0.4239
     51 H30         3.7929   -7.5380   -3.6310 H         1 <0>         0.4451
@<TRIPOS>BOND
     1    1    2 1
     2    1   23 1
     3    1   24 1
     4    1   25 1
     5    2    3 1
     6    2   26 1
     7    2   27 1
     8    3    4 1
     9    3   28 1
    10    3   29 1
    11    4    5 1
    12    4   30 1
    13    4   31 1
    14    5    6 1
    15    5   18 1
    16    5   50 1
    17    6    7 1
    18    6   32 1
    19    6   33 1
    20    7   15 2
    21    7    8 1
    22    8   13 ar
    23    8    9 ar
    24    9   10 ar
    25    9   34 1
    26   10   11 ar
    27   10   35 1
    28   11   12 ar
    29   11   36 1
    30   12   13 ar
    31   12   37 1
    32   13   14 1
    33   14   15 1
    34   15   16 1
    35   16   17 1
    36   16   38 1
    37   16   39 1
    38   17   40 1
    39   17   41 1
    40   17   51 1
    41   18   19 1
    42   18   20 1
    43   18   21 1
    44   20   42 1
    45   20   43 1
    46   20   44 1
    47   21   22 1
    48   21   45 1
    49   21   46 1
    50   22   47 1
    51   22   48 1
    52   22   49 1
@<TRIPOS>MOLECULE
ZINC04223001
   49    50     0     0     0
SMALL
USER_CHARGES
2-[[3-bromo-4-[(4-fluorophenyl)methoxy]-5-methoxy-phenyl]methylamino]-2-methyl-propan-1-ol
@<TRIPOS>ATOM
      1 C1          0.1453    8.5622   -1.8694 C.3       1 <0>        -0.1723
      2 C2         -0.2848    7.2465   -2.5212 C.3       1 <0>         0.0571
      3 C3          0.9208    6.5978   -3.2044 C.3       1 <0>        -0.1717
      4 C4         -1.3720    7.5241   -3.5613 C.3       1 <0>         0.0661
      5 O1         -0.8599    8.4063   -4.5620 O.3       1 <0>        -0.5526
      6 C5          0.2075    6.0500   -0.4746 C.3       1 <0>         0.0469
      7 C6         -0.3679    5.1189    0.5613 C.ar      1 <0>        -0.1253
      8 C7         -0.2592    3.7505    0.3951 C.ar      1 <0>        -0.1660
      9 C8         -0.7875    2.8927    1.3463 C.ar      1 <0>         0.1279
     10 C9         -1.4316    3.4113    2.4655 C.ar      1 <0>         0.1297
     11 C10        -1.5315    4.7839    2.6297 C.ar      1 <0>        -0.0819
     12 C11        -1.0025    5.6347    1.6755 C.ar      1 <0>        -0.0904
     13 Br1        -2.3985    5.4936    4.1530 Br        1 <0>         0.0036
     14 O2         -1.9567    2.5731    3.3991 O.3       1 <0>        -0.3076
     15 C12        -1.1016    2.1840    4.4758 C.3       1 <0>         0.1134
     16 C13        -1.8499    1.2616    5.4035 C.ar      1 <0>        -0.1131
     17 C14        -2.5610    1.7816    6.4689 C.ar      1 <0>        -0.0615
     18 C15        -3.2515    0.9371    7.3174 C.ar      1 <0>        -0.1569
     19 C16        -3.2223   -0.4310    7.1062 C.ar      1 <0>         0.1167
     20 C17        -2.5054   -0.9510    6.0419 C.ar      1 <0>        -0.1572
     21 C18        -1.8200   -0.1042    5.1916 C.ar      1 <0>        -0.0610
     22 F1         -3.8931   -1.2579    7.9378 F         1 <0>        -0.1333
     23 O3         -0.6816    1.5467    1.1837 O.3       1 <0>        -0.2916
     24 C19        -0.0127    1.0858    0.0080 C.3       1 <0>         0.0194
     25 H1          0.9198    8.3645   -1.1284 H         1 <0>         0.0821
     26 H2          0.5359    9.2352   -2.6327 H         1 <0>         0.1139
     27 H3         -0.7136    9.0244   -1.3827 H         1 <0>         0.0809
     28 H4          0.6144    5.6605   -3.6687 H         1 <0>         0.0795
     29 H5          1.3115    7.2708   -3.9676 H         1 <0>         0.1140
     30 H6          1.6954    6.4001   -2.4634 H         1 <0>         0.0817
     31 H7         -1.6784    6.5868   -4.0256 H         1 <0>         0.0684
     32 H8         -2.2309    7.9862   -3.0746 H         1 <0>         0.0693
     33 H9         -1.4967    8.6263   -5.2556 H         1 <0>         0.4063
     34 H10         0.5173    6.9791    0.0040 H         1 <0>         0.1461
     35 H11         1.0698    5.5796   -0.9471 H         1 <0>         0.1441
     36 H12         0.2372    3.3502   -0.4765 H         1 <0>         0.1481
     37 H13        -1.0853    6.7041    1.8017 H         1 <0>         0.1486
     38 H14        -0.2278    1.6682    4.0777 H         1 <0>         0.0709
     39 H15        -0.7819    3.0700    5.0244 H         1 <0>         0.0701
     40 H16        -2.5802    2.8484    6.6358 H         1 <0>         0.1340
     41 H17        -3.8103    1.3438    8.1473 H         1 <0>         0.1411
     42 H18        -2.4822   -2.0179    5.8760 H         1 <0>         0.1410
     43 H19        -1.2611   -0.5095    4.3612 H         1 <0>         0.1352
     44 H20         0.0021   -0.0041    0.0020 H         1 <0>         0.1142
     45 H21         1.0099    1.4631    0.0003 H         1 <0>         0.0619
     46 H22        -0.5399    1.4469   -0.8751 H         1 <0>         0.0596
     47 N1         -0.8213    6.3356   -1.4924 N.4       1 <0>        -0.5121
     48 H23        -1.1116    5.4566   -1.9365 H         1 <0>         0.4304
     49 H24        -1.6319    6.7749   -1.0406 H         1 <0>         0.4321
@<TRIPOS>BOND
     1    1    2 1
     2    1   25 1
     3    1   26 1
     4    1   27 1
     5    2    3 1
     6    2    4 1
     7    2   47 1
     8    3   28 1
     9    3   29 1
    10    3   30 1
    11    4    5 1
    12    4   31 1
    13    4   32 1
    14    5   33 1
    15    6    7 1
    16    6   34 1
    17    6   35 1
    18    6   47 1
    19    7   12 ar
    20    7    8 ar
    21    8    9 ar
    22    8   36 1
    23    9   10 ar
    24    9   23 1
    25   10   11 ar
    26   10   14 1
    27   11   12 ar
    28   11   13 1
    29   12   37 1
    30   14   15 1
    31   15   16 1
    32   15   38 1
    33   15   39 1
    34   16   21 ar
    35   16   17 ar
    36   17   18 ar
    37   17   40 1
    38   18   19 ar
    39   18   41 1
    40   19   20 ar
    41   19   22 1
    42   20   21 ar
    43   20   42 1
    44   21   43 1
    45   23   24 1
    46   24   44 1
    47   24   45 1
    48   24   46 1
    49   47   48 1
    50   47   49 1
@<TRIPOS>MOLECULE
ZINC12603393
   56    60     0     0     0
SMALL
USER_CHARGES
(1S,4S)-4-[1-(4-fluorophenyl)-3,5-dimethyl-pyrazol-4-yl]-N-(1H-indol-3-ylmethyl)cyclopent-2-en-1-amine
@<TRIPOS>ATOM
      1 C1         -4.3773   10.6966    2.7887 C.3       1 <0>        -0.0827
      2 C2         -4.2556   10.1631    4.1929 C.2       1 <0>         0.0931
      3 C3         -3.3887    9.1482    4.6122 C.2       1 <0>        -0.2425
      4 C4         -3.5831    8.9552    5.9375 C.2       1 <0>         0.1101
      5 N1         -4.5343    9.8256    6.3447 N.pl3     1 <0>        -0.3160
      6 N2         -4.9425   10.5696    5.2302 N.2       1 <0>        -0.2774
      7 C5         -5.0290    9.9562    7.6505 C.ar      1 <0>         0.1272
      8 C6         -6.3899   10.1287    7.8642 C.ar      1 <0>        -0.0732
      9 C7         -6.8758   10.2518    9.1510 C.ar      1 <0>        -0.1343
     10 C8         -6.0052   10.2139   10.2274 C.ar      1 <0>         0.1120
     11 C9         -4.6468   10.0476   10.0159 C.ar      1 <0>        -0.1338
     12 C10        -4.1578    9.9189    8.7308 C.ar      1 <0>        -0.0935
     13 F1         -6.4818   10.3396   11.4853 F         1 <0>        -0.1278
     14 C11        -2.8656    7.9530    6.8044 C.3       1 <0>        -0.1041
     15 C12        -2.4148    8.3979    3.7405 C.3       1 <0>        -0.0022
     16 H1         -1.8391    7.6906    4.3375 H         1 <0>         0.1037
     17 C13        -3.1642    7.6608    2.6064 C.3       1 <0>        -0.1362
     18 C14        -2.1662    7.8079    1.4344 C.3       1 <0>         0.0531
     19 H2         -2.7013    7.9490    0.4954 H         1 <0>         0.1455
     20 C15        -1.3559    9.0387    1.7686 C.2       1 <0>        -0.2293
     21 C16        -1.4920    9.3600    3.0293 C.2       1 <0>        -0.0648
     22 C17        -0.7503    6.4679   -0.0017 C.3       1 <0>         0.0911
     23 C18         0.1365    5.2503   -0.0461 C.2       1 <0>        -0.2666
     24 C19         1.4775    5.2365    0.0138 C.2       1 <0>         0.1237
     25 N3          1.9345    3.9486   -0.0554 N.pl3     1 <0>        -0.5795
     26 H3          2.8681    3.6866   -0.0316 H         1 <0>         0.4279
     27 C20         0.8716    3.0800   -0.1643 C.ar      1 <0>         0.0928
     28 C21        -0.3013    3.8572   -0.1632 C.ar      1 <0>        -0.0966
     29 C22        -1.5478    3.2369   -0.2627 C.ar      1 <0>        -0.0933
     30 C23        -1.6221    1.8763   -0.3668 C.ar      1 <0>        -0.1211
     31 C24        -0.4684    1.1048   -0.3629 C.ar      1 <0>        -0.0906
     32 C25         0.7722    1.6965   -0.2654 C.ar      1 <0>        -0.1157
     33 H4         -5.1293   10.1236    2.2462 H         1 <0>         0.0801
     34 H5         -4.6740   11.7449    2.8228 H         1 <0>         0.0801
     35 H6         -3.4166   10.6072    2.2816 H         1 <0>         0.0792
     36 H7         -7.0686   10.1628    7.0248 H         1 <0>         0.1437
     37 H8         -7.9348   10.3823    9.3179 H         1 <0>         0.1502
     38 H9         -3.9694   10.0182   10.8565 H         1 <0>         0.1504
     39 H10        -3.0983    9.7896    8.5662 H         1 <0>         0.1402
     40 H11        -1.9859    8.4198    7.2476 H         1 <0>         0.0876
     41 H12        -3.5337    7.6127    7.5956 H         1 <0>         0.0813
     42 H13        -2.5581    7.1016    6.1973 H         1 <0>         0.0865
     43 H14        -4.1102    8.1521    2.3787 H         1 <0>         0.1186
     44 H15        -3.3205    6.6119    2.8579 H         1 <0>         0.0969
     45 H16        -0.7464    9.5798    1.0601 H         1 <0>         0.1540
     46 H17        -1.0080   10.2031    3.4998 H         1 <0>         0.1480
     47 H18        -0.1686    7.3509   -0.2663 H         1 <0>         0.1330
     48 H19        -1.5695    6.3467   -0.7105 H         1 <0>         0.1324
     49 H20         2.1030    6.1123    0.1037 H         1 <0>         0.1813
     50 H21        -2.4501    3.8304   -0.2618 H         1 <0>         0.1213
     51 H22        -2.5866    1.3971   -0.4481 H         1 <0>         0.1311
     52 H23        -0.5435    0.0303   -0.4417 H         1 <0>         0.1350
     53 H24         1.6644    1.0879   -0.2677 H         1 <0>         0.1289
     54 N4         -1.2926    6.6215    1.3614 N.4       1 <0>        -0.5134
     55 H25        -1.8359    5.7853    1.6060 H         1 <0>         0.4276
     56 H26        -0.5163    6.7313    2.0244 H         1 <0>         0.4270
@<TRIPOS>BOND
     1    1    2 1
     2    1   33 1
     3    1   34 1
     4    1   35 1
     5    2    6 2
     6    2    3 1
     7    3    4 2
     8    3   15 1
     9    4    5 1
    10    4   14 1
    11    5    6 1
    12    5    7 1
    13    7   12 ar
    14    7    8 ar
    15    8    9 ar
    16    8   36 1
    17    9   10 ar
    18    9   37 1
    19   10   11 ar
    20   10   13 1
    21   11   12 ar
    22   11   38 1
    23   12   39 1
    24   14   40 1
    25   14   41 1
    26   14   42 1
    27   15   16 1
    28   15   21 1
    29   15   17 1
    30   17   18 1
    31   17   43 1
    32   17   44 1
    33   18   19 1
    34   18   20 1
    35   18   54 1
    36   20   21 2
    37   20   45 1
    38   21   46 1
    39   22   23 1
    40   22   47 1
    41   22   48 1
    42   22   54 1
    43   23   28 1
    44   23   24 2
    45   24   25 1
    46   24   49 1
    47   25   26 1
    48   25   27 1
    49   27   32 ar
    50   27   28 ar
    51   28   29 ar
    52   29   30 ar
    53   29   50 1
    54   30   31 ar
    55   30   51 1
    56   31   32 ar
    57   31   52 1
    58   32   53 1
    59   54   55 1
    60   54   56 1
@<TRIPOS>MOLECULE
ZINC22619211
   54    57     0     0     0
SMALL
USER_CHARGES
N-[(2R)-2-(2-chlorophenyl)-2-pyrrolidin-1-yl-ethyl]-4-oxo-3,5-dihydro-2H-1,5-benzothiazepine-7-carboxamide
@<TRIPOS>ATOM
      1 C1         -4.2834    1.6456   -2.4689 C.ar      1 <0>        -0.0885
      2 C2         -4.0137    2.2312   -3.6920 C.ar      1 <0>        -0.0802
      3 C3         -3.3053    3.4163   -3.7498 C.ar      1 <0>        -0.0872
      4 C4         -2.8662    4.0172   -2.5832 C.ar      1 <0>        -0.0131
      5 C5         -3.1367    3.4311   -1.3598 C.ar      1 <0>        -0.1248
      6 C6         -3.8409    2.2429   -1.3036 C.ar      1 <0>        -0.1275
      7 C7         -2.6584    4.0845   -0.0889 C.3       1 <0>         0.0698
      8 H1         -2.8188    5.1712   -0.1470 H         1 <0>         0.1602
      9 C8         -1.1787    3.7599    0.1259 C.3       1 <0>         0.1037
     10 N1         -1.0222    2.3208    0.3511 N.am      1 <0>        -0.7510
     11 C9          0.2100    1.7859    0.4602 C.2       1 <0>         0.5715
     12 O1          1.1920    2.4970    0.3667 O.2       1 <0>        -0.5039
     13 C10         0.3676    0.3371    0.6870 C.ar      1 <0>        -0.1019
     14 C11        -0.7615   -0.4803    0.7944 C.ar      1 <0>        -0.1056
     15 C12        -0.6174   -1.8340    1.0070 C.ar      1 <0>        -0.0534
     16 C13         0.6531   -2.3859    1.1138 C.ar      1 <0>        -0.1069
     17 C14         1.7854   -1.5756    1.0061 C.ar      1 <0>         0.1836
     18 C15         1.6470   -0.2197    0.7887 C.ar      1 <0>        -0.0733
     19 N2          3.0600   -2.1544    1.1122 N.am      1 <0>        -0.6857
     20 C16         3.3780   -3.2271    0.3772 C.2       1 <0>         0.5325
     21 O2          4.4026   -3.8302    0.6175 O.2       1 <0>        -0.5097
     22 C17         2.4921   -3.6972   -0.7382 C.3       1 <0>        -0.1543
     23 C18         1.4716   -4.7239   -0.2179 C.3       1 <0>        -0.0933
     24 S1          0.8573   -4.1165    1.3885 S.3       1 <0>        -0.1236
     25 N3         -3.4407    3.5779    1.0466 N.4       1 <0>        -0.4125
     26 C19        -2.9156    4.1051    2.3322 C.3       1 <0>        -0.0069
     27 C20        -4.1100    3.9266    3.3028 C.3       1 <0>        -0.1415
     28 C21        -5.3308    4.2539    2.4125 C.3       1 <0>        -0.1407
     29 C22        -4.8455    4.0336    0.9678 C.3       1 <0>        -0.0031
     30 Cl1        -1.9757    5.5056   -2.6551 Cl        1 <0>        -0.0394
     31 H2         -4.8365    0.7191   -2.4243 H         1 <0>         0.1454
     32 H3         -4.3565    1.7621   -4.6025 H         1 <0>         0.1481
     33 H4         -3.0941    3.8732   -4.7053 H         1 <0>         0.1499
     34 H5         -4.0483    1.7829   -0.3487 H         1 <0>         0.1210
     35 H6         -0.6053    4.0562   -0.7648 H         1 <0>         0.1192
     36 H7         -0.8058    4.3108    1.0019 H         1 <0>         0.1032
     37 H8         -1.9104    1.6768    0.4311 H         1 <0>         0.4027
     38 H9         -1.7485   -0.0500    0.7103 H         1 <0>         0.1244
     39 H10        -1.4902   -2.4648    1.0901 H         1 <0>         0.1495
     40 H11         2.5212    0.4085    0.7021 H         1 <0>         0.1515
     41 H12         3.8027   -1.7265    1.8016 H         1 <0>         0.4452
     42 H13         1.9511   -2.8389   -1.1633 H         1 <0>         0.0879
     43 H14         3.1058   -4.1677   -1.5205 H         1 <0>         0.1222
     44 H15         0.6443   -4.8153   -0.9370 H         1 <0>         0.1087
     45 H16         1.9628   -5.7008   -0.0980 H         1 <0>         0.1268
     46 H17        -2.0351    3.5200    2.6362 H         1 <0>         0.1348
     47 H18        -2.6294    5.1597    2.2065 H         1 <0>         0.1362
     48 H19        -4.1253    2.8931    3.6792 H         1 <0>         0.0994
     49 H20        -4.0032    4.6229    4.1476 H         1 <0>         0.1196
     50 H21        -6.1619    3.5799    2.6676 H         1 <0>         0.1086
     51 H22        -5.6390    5.2962    2.5815 H         1 <0>         0.1078
     52 H23        -4.8952    4.9710    0.3944 H         1 <0>         0.1328
     53 H24        -5.4528    3.2650    0.4673 H         1 <0>         0.1326
     54 H25        -3.3690    2.4815    0.9941 H         1 <0>         0.4290
@<TRIPOS>BOND
     1    1    6 ar
     2    1    2 ar
     3    1   31 1
     4    2    3 ar
     5    2   32 1
     6    3    4 ar
     7    3   33 1
     8    4    5 ar
     9    4   30 1
    10    5    6 ar
    11    5    7 1
    12    6   34 1
    13    7    8 1
    14    7    9 1
    15    7   25 1
    16    9   10 1
    17    9   35 1
    18    9   36 1
    19   10   11 am
    20   10   37 1
    21   11   12 2
    22   11   13 1
    23   13   18 ar
    24   13   14 ar
    25   14   15 ar
    26   14   38 1
    27   15   16 ar
    28   15   39 1
    29   16   24 1
    30   16   17 ar
    31   17   18 ar
    32   17   19 1
    33   18   40 1
    34   19   20 am
    35   19   41 1
    36   20   21 2
    37   20   22 1
    38   22   23 1
    39   22   42 1
    40   22   43 1
    41   23   24 1
    42   23   44 1
    43   23   45 1
    44   25   29 1
    45   25   26 1
    46   25   54 1
    47   26   27 1
    48   26   46 1
    49   26   47 1
    50   27   28 1
    51   27   48 1
    52   27   49 1
    53   28   29 1
    54   28   50 1
    55   28   51 1
    56   29   52 1
    57   29   53 1
@<TRIPOS>MOLECULE
ZINC39635793
   68    71     0     0     0
SMALL
USER_CHARGES

@<TRIPOS>ATOM
      1 C1          0.5929    1.4231   -0.3803 C.3       1 <0>        -0.1492
      2 C2          0.0133    0.0648    0.0198 C.3       1 <0>        -0.0941
      3 C3          0.7386   -0.4524    1.2353 C.ar      1 <0>        -0.0446
      4 C4          1.8705   -1.2332    1.0816 C.ar      1 <0>        -0.1237
      5 C5          2.5391   -1.7099    2.1901 C.ar      1 <0>        -0.0540
      6 C6          2.0714   -1.4029    3.4689 C.ar      1 <0>        -0.1494
      7 C7          0.9290   -0.6148    3.6169 C.ar      1 <0>        -0.0913
      8 C8          0.2730   -0.1398    2.5001 C.ar      1 <0>        -0.1250
      9 C9          2.7827   -1.9108    4.6613 C.2       1 <0>         0.5909
     10 O1          3.9626   -2.1942    4.5904 O.2       1 <0>        -0.5276
     11 N1          2.1228   -2.0595    5.8271 N.am      1 <0>        -0.6206
     12 C10         0.6718   -1.8919    6.0773 C.3       1 <0>         0.1030
     13 C11         0.3119   -3.0269    7.0621 C.3       1 <0>        -0.1157
     14 H1         -0.0683   -3.8930    6.5204 H         1 <0>         0.1122
     15 C12         1.6362   -3.3728    7.7632 C.3       1 <0>        -0.0718
     16 C13         2.6837   -2.4341    7.1473 C.3       1 <0>         0.1084
     17 C14         2.0142   -4.8257    7.4916 C.3       1 <0>        -0.1341
     18 C15         3.3039   -5.1621    8.2454 C.3       1 <0>        -0.0112
     19 N2          3.1020   -4.9486    9.6836 N.4       1 <0>        -0.5044
     20 C16         2.8301   -3.5302    9.9462 C.3       1 <0>        -0.0080
     21 C17         1.5205   -3.1247    9.2640 C.3       1 <0>        -0.1488
     22 C18        -0.7061   -2.5482    8.0649 C.2       1 <0>         0.5211
     23 O2         -0.7894   -1.3671    8.3278 O.2       1 <0>        -0.5193
     24 N3         -1.5239   -3.4325    8.6696 N.am      1 <0>        -0.7226
     25 C19        -2.5134   -2.9672    9.6445 C.3       1 <0>         0.1501
     26 H2         -2.1032   -2.1281   10.2064 H         1 <0>         0.0919
     27 C20        -3.7799   -2.5198    8.9118 C.3       1 <0>        -0.1302
     28 C21        -4.8134   -2.0338    9.9299 C.3       1 <0>        -0.1192
     29 C22        -5.1563   -3.1729   10.8920 C.3       1 <0>        -0.1250
     30 C23        -3.8898   -3.6204   11.6247 C.3       1 <0>        -0.1128
     31 C24        -2.8564   -4.1064   10.6066 C.3       1 <0>        -0.0989
     32 H3         -3.2666   -4.9454   10.0446 H         1 <0>         0.0775
     33 C25        -1.5899   -4.5538   11.3392 C.3       1 <0>        -0.1465
     34 H4          1.6528    1.3127   -0.6093 H         1 <0>         0.0579
     35 H5          0.0683    1.7972   -1.2595 H         1 <0>         0.0642
     36 H6          0.4705    2.1271    0.4428 H         1 <0>         0.0571
     37 H7         -1.0466    0.1753    0.2488 H         1 <0>         0.0773
     38 H8          0.1358   -0.6391   -0.8033 H         1 <0>         0.0780
     39 H9          2.2311   -1.4703    0.0916 H         1 <0>         0.1332
     40 H10         3.4223   -2.3196    2.0688 H         1 <0>         0.1344
     41 H11         0.5620   -0.3737    4.6036 H         1 <0>         0.1332
     42 H12        -0.6085    0.4738    2.6133 H         1 <0>         0.1313
     43 H13         0.4739   -0.9199    6.5289 H         1 <0>         0.1026
     44 H14         0.1110   -2.0020    5.1491 H         1 <0>         0.1010
     45 H15         3.6335   -2.9543    7.0235 H         1 <0>         0.0905
     46 H16         2.8120   -1.5494    7.7710 H         1 <0>         0.0847
     47 H17         1.2120   -5.4802    7.8327 H         1 <0>         0.0957
     48 H18         2.1702   -4.9673    6.4222 H         1 <0>         0.1185
     49 H19         3.5677   -6.2045    8.0666 H         1 <0>         0.1400
     50 H20         4.1094   -4.5182    7.8923 H         1 <0>         0.1347
     51 H21         2.3201   -5.5034    9.9982 H         1 <0>         0.4269
     52 H22         2.7446   -3.3698   11.0209 H         1 <0>         0.1393
     53 H23         3.6469   -2.9251    9.5528 H         1 <0>         0.1337
     54 H24         1.3286   -2.0670    9.4443 H         1 <0>         0.1250
     55 H25         0.7005   -3.7179    9.6688 H         1 <0>         0.0993
     56 H26        -1.4572   -4.3771    8.4593 H         1 <0>         0.3983
     57 H27        -3.5356   -1.7082    8.2264 H         1 <0>         0.0687
     58 H28        -4.1901   -3.3588    8.3499 H         1 <0>         0.0650
     59 H29        -4.4031   -1.1947   10.4919 H         1 <0>         0.0654
     60 H30        -5.7156   -1.7150    9.4080 H         1 <0>         0.0691
     61 H31        -5.8926   -2.8267   11.6174 H         1 <0>         0.0688
     62 H32        -5.5666   -4.0120   10.3301 H         1 <0>         0.0642
     63 H33        -3.4796   -2.7813   12.1866 H         1 <0>         0.0664
     64 H34        -4.1341   -4.4319   12.3101 H         1 <0>         0.0704
     65 H35        -1.1796   -3.7147   11.9012 H         1 <0>         0.0572
     66 H36        -1.8342   -5.3653   12.0246 H         1 <0>         0.0623
     67 H37        -0.8536   -4.9000   10.6139 H         1 <0>         0.0443
     68 H38         3.9324   -5.2286   10.1837 H         1 <0>         0.4344
@<TRIPOS>BOND
     1    1    2 1
     2    1   34 1
     3    1   35 1
     4    1   36 1
     5    2    3 1
     6    2   37 1
     7    2   38 1
     8    3    8 ar
     9    3    4 ar
    10    4    5 ar
    11    4   39 1
    12    5    6 ar
    13    5   40 1
    14    6    7 ar
    15    6    9 1
    16    7    8 ar
    17    7   41 1
    18    8   42 1
    19    9   10 2
    20    9   11 am
    21   11   16 1
    22   11   12 1
    23   12   13 1
    24   12   43 1
    25   12   44 1
    26   13   14 1
    27   13   15 1
    28   13   22 1
    29   15   21 1
    30   15   16 1
    31   15   17 1
    32   16   45 1
    33   16   46 1
    34   17   18 1
    35   17   47 1
    36   17   48 1
    37   18   19 1
    38   18   49 1
    39   18   50 1
    40   19   20 1
    41   19   51 1
    42   19   68 1
    43   20   21 1
    44   20   52 1
    45   20   53 1
    46   21   54 1
    47   21   55 1
    48   22   23 2
    49   22   24 am
    50   24   25 1
    51   24   56 1
    52   25   26 1
    53   25   31 1
    54   25   27 1
    55   27   28 1
    56   27   57 1
    57   27   58 1
    58   28   29 1
    59   28   59 1
    60   28   60 1
    61   29   30 1
    62   29   61 1
    63   29   62 1
    64   30   31 1
    65   30   63 1
    66   30   64 1
    67   31   32 1
    68   31   33 1
    69   33   65 1
    70   33   66 1
    71   33   67 1
@<TRIPOS>MOLECULE
ZINC49595974
   36    37     0     0     0
SMALL
USER_CHARGES

@<TRIPOS>ATOM
      1 C1         -0.0167    1.3782    0.0096 C.ar      1 <0>        -0.1101
      2 C2          1.1699    2.0883    0.0021 C.ar      1 <0>        -0.0607
      3 C3          2.3777    1.4179   -0.0134 C.ar      1 <0>        -0.1805
      4 C4          2.4000    0.0310   -0.0211 C.ar      1 <0>         0.1426
      5 C5          1.2079   -0.6798   -0.0130 C.ar      1 <0>        -0.1148
      6 C6          0.0021   -0.0041    0.0020 C.ar      1 <0>        -0.0437
      7 Br1         1.2333   -2.5706   -0.0240 Br        1 <0>        -0.0063
      8 O1          3.5871   -0.6308   -0.0368 O.3       1 <0>        -0.3301
      9 C7          4.1668   -0.9534    1.2288 C.3       1 <0>         0.0670
     10 C8          5.4895   -1.6908    1.0108 C.3       1 <0>         0.0569
     11 O2          6.4249   -0.8145    0.3789 O.3       1 <0>        -0.3186
     12 C9          7.6590   -1.3177    0.1124 C.ar      1 <0>         0.1380
     13 C10         7.9612   -2.6297    0.4470 C.ar      1 <0>        -0.2002
     14 C11         9.2162   -3.1392    0.1752 C.ar      1 <0>        -0.0454
     15 C12        10.1712   -2.3421   -0.4302 C.ar      1 <0>        -0.1243
     16 C13         9.8719   -1.0334   -0.7642 C.ar      1 <0>        -0.0496
     17 C14         8.6162   -0.5219   -0.4998 C.ar      1 <0>        -0.1474
     18 Br2        11.8882   -3.0423   -0.8010 Br        1 <0>        -0.0364
     19 C15         3.6701    2.1929   -0.0226 C.3       1 <0>         0.0531
     20 N1          4.1999    2.2453   -1.3917 N.4       1 <0>        -0.6347
     21 H1         -0.9597    1.9044    0.0259 H         1 <0>         0.1508
     22 H2          1.1523    3.1681    0.0080 H         1 <0>         0.1472
     23 H3         -0.9260   -0.5564    0.0079 H         1 <0>         0.1514
     24 H4          4.3501   -0.0364    1.7889 H         1 <0>         0.0729
     25 H5          3.4834   -1.5911    1.7895 H         1 <0>         0.0912
     26 H6          5.8876   -2.0148    1.9724 H         1 <0>         0.0945
     27 H7          5.3203   -2.5605    0.3759 H         1 <0>         0.0845
     28 H8          7.2161   -3.2521    0.9199 H         1 <0>         0.1375
     29 H9          9.4520   -4.1604    0.4359 H         1 <0>         0.1400
     30 H10        10.6190   -0.4127   -1.2364 H         1 <0>         0.1427
     31 H11         8.3814    0.4983   -0.7654 H         1 <0>         0.1352
     32 H12         3.4887    3.2062    0.3358 H         1 <0>         0.1449
     33 H13         4.3932    1.7013    0.6282 H         1 <0>         0.1395
     34 H14         4.3679    1.3073   -1.7235 H         1 <0>         0.4397
     35 H15         3.5306    2.7004   -1.9942 H         1 <0>         0.4342
     36 H16         5.0653    2.7641   -1.3979 H         1 <0>         0.4391
@<TRIPOS>BOND
     1    1    6 ar
     2    1    2 ar
     3    1   21 1
     4    2    3 ar
     5    2   22 1
     6    3    4 ar
     7    3   19 1
     8    4    5 ar
     9    4    8 1
    10    5    6 ar
    11    5    7 1
    12    6   23 1
    13    8    9 1
    14    9   10 1
    15    9   24 1
    16    9   25 1
    17   10   11 1
    18   10   26 1
    19   10   27 1
    20   11   12 1
    21   12   17 ar
    22   12   13 ar
    23   13   14 ar
    24   13   28 1
    25   14   15 ar
    26   14   29 1
    27   15   16 ar
    28   15   18 1
    29   16   17 ar
    30   16   30 1
    31   17   31 1
    32   19   20 1
    33   19   32 1
    34   19   33 1
    35   20   34 1
    36   20   35 1
    37   20   36 1
@<TRIPOS>MOLECULE
ZINC64538615
   48    51     0     0     0
SMALL
USER_CHARGES

@<TRIPOS>ATOM
      1 C1         -0.1434    1.2272   -0.2822 C.ar      1 <0>        -0.0662
      2 C2          0.9354    1.8515   -0.8831 C.ar      1 <0>        -0.1200
      3 C3          2.1495    1.2030   -0.9724 C.ar      1 <0>        -0.0411
      4 C4          2.2886   -0.0862   -0.4543 C.ar      1 <0>        -0.1596
      5 C5          1.1960   -0.7100    0.1512 C.ar      1 <0>        -0.0819
      6 C6         -0.0126   -0.0502    0.2333 C.ar      1 <0>        -0.1199
      7 C7          3.5859   -0.7871   -0.5467 C.2       1 <0>         0.5623
      8 O1          4.5350   -0.2418   -1.0747 O.2       1 <0>        -0.4596
      9 N1          3.7168   -2.0314   -0.0456 N.am      1 <0>        -0.6204
     10 C8          4.9014   -2.6919   -0.1641 C.2       1 <0>         0.3040
     11 C9          6.1694   -2.1366   -0.1832 C.ar      1 <0>        -0.1718
     12 C10         6.6279   -0.7998   -0.0943 C.ar      1 <0>        -0.0313
     13 C11         7.9594   -0.5412   -0.1424 C.ar      1 <0>         0.0628
     14 C12         8.9007   -1.5676   -0.2789 C.ar      1 <0>         0.0235
     15 C13         8.5328   -2.8683   -0.3695 C.ar      1 <0>        -0.1744
     16 C14         7.1582   -3.2186   -0.3265 C.ar      1 <0>         0.3336
     17 N2          6.5539   -4.3881   -0.3940 N.pl3     1 <0>        -0.5804
     18 C15         5.1050   -4.1850   -0.2954 C.3       1 <0>         0.0957
     19 H1          4.6141   -4.5530   -1.1963 H         1 <0>         0.1989
     20 C16         4.5605   -4.8919    0.9190 C.2       1 <0>         0.5135
     21 O2          5.3130   -5.2518    1.7994 O.2       1 <0>        -0.4777
     22 N3          3.2373   -5.1242    1.0267 N.am      1 <0>        -0.7100
     23 C17         2.7079   -5.8114    2.2073 C.3       1 <0>         0.1625
     24 C18         1.2121   -5.9449    2.0822 C.ar      1 <0>        -0.1637
     25 C19         0.3812   -5.0621    2.7460 C.ar      1 <0>        -0.0717
     26 C20        -0.9908   -5.1843    2.6314 C.ar      1 <0>        -0.1277
     27 C21        -1.5338   -6.1897    1.8528 C.ar      1 <0>        -0.0696
     28 C22        -0.7051   -7.0732    1.1879 C.ar      1 <0>        -0.1518
     29 C23         0.6697   -6.9484    1.2977 C.ar      1 <0>         0.1184
     30 F1          1.4809   -7.8088    0.6443 F         1 <0>        -0.1328
     31 F2          8.3863    0.7377   -0.0567 F         1 <0>        -0.1148
     32 H2         -1.0907    1.7411   -0.2112 H         1 <0>         0.1400
     33 H3          0.8264    2.8486   -1.2835 H         1 <0>         0.1428
     34 H4          2.9906    1.6910   -1.4424 H         1 <0>         0.1441
     35 H5          1.2967   -1.7071    0.5537 H         1 <0>         0.1223
     36 H6         -0.8585   -0.5315    0.7014 H         1 <0>         0.1399
     37 H7          2.9670   -2.4563    0.3995 H         1 <0>         0.4345
     38 H8          5.9213    0.0102    0.0108 H         1 <0>         0.1804
     39 H9          9.9503   -1.3156   -0.3135 H         1 <0>         0.1746
     40 H10         9.2840   -3.6371   -0.4743 H         1 <0>         0.1744
     41 H11         2.6354   -4.8363    0.3226 H         1 <0>         0.4057
     42 H12         3.1561   -6.8021    2.2824 H         1 <0>         0.0951
     43 H13         2.9478   -5.2353    3.1010 H         1 <0>         0.0973
     44 H14         0.8042   -4.2766    3.3548 H         1 <0>         0.1371
     45 H15        -1.6393   -4.4943    3.1508 H         1 <0>         0.1380
     46 H16        -2.6060   -6.2847    1.7646 H         1 <0>         0.1409
     47 H17        -1.1295   -7.8586    0.5800 H         1 <0>         0.1430
     48 H18         6.9967   -5.2458   -0.4903 H         1 <0>         0.4614
@<TRIPOS>BOND
     1    1    6 ar
     2    1    2 ar
     3    1   32 1
     4    2    3 ar
     5    2   33 1
     6    3    4 ar
     7    3   34 1
     8    4    5 ar
     9    4    7 1
    10    5    6 ar
    11    5   35 1
    12    6   36 1
    13    7    8 2
    14    7    9 am
    15    9   10 1
    16    9   37 1
    17   10   18 1
    18   10   11 2
    19   11   16 ar
    20   11   12 ar
    21   12   13 ar
    22   12   38 1
    23   13   14 ar
    24   13   31 1
    25   14   15 ar
    26   14   39 1
    27   15   16 ar
    28   15   40 1
    29   16   17 2
    30   17   18 1
    31   17   48 1
    32   18   19 1
    33   18   20 1
    34   20   21 2
    35   20   22 am
    36   22   23 1
    37   22   41 1
    38   23   24 1
    39   23   42 1
    40   23   43 1
    41   24   29 ar
    42   24   25 ar
    43   25   26 ar
    44   25   44 1
    45   26   27 ar
    46   26   45 1
    47   27   28 ar
    48   27   46 1
    49   28   29 ar
    50   28   47 1
    51   29   30 1
@<TRIPOS>MOLECULE
ZINC12298421
   67    70     0     0     0
SMALL
USER_CHARGES
4-[4-[[[(4S)-1-(4-methoxyphenyl)-6,6-dimethyl-5,7-dihydro-4H-indazol-4-yl]amino]methyl]phenyl]-2-methyl-but-3-yn-2-ol
@<TRIPOS>ATOM
      1 C1         -0.9580    0.1769   -6.0591 C.3       1 <0>        -0.1485
      2 C2         -0.0396    0.5954   -4.9091 C.3       1 <0>        -0.0431
      3 C3          0.6770    1.9006   -5.2765 C.3       1 <0>        -0.0671
      4 C4          1.3768    2.4215   -4.0462 C.2       1 <0>         0.1514
      5 C5          1.1041    2.0077   -2.7821 C.2       1 <0>        -0.3117
      6 C6          1.9442    2.6994   -1.9121 C.2       1 <0>         0.0572
      7 N1          2.6964    3.5032   -2.6246 N.2       1 <0>        -0.2647
      8 N2          2.3536    3.3443   -3.9757 N.pl3     1 <0>        -0.2878
      9 C7          2.9272    4.0255   -5.0598 C.ar      1 <0>         0.0772
     10 C8          4.2994    4.2321   -5.1026 C.ar      1 <0>        -0.0512
     11 C9          4.8639    4.8988   -6.1719 C.ar      1 <0>        -0.1927
     12 C10         4.0589    5.3711   -7.1984 C.ar      1 <0>         0.1508
     13 C11         2.6870    5.1691   -7.1537 C.ar      1 <0>        -0.1334
     14 C12         2.1221    4.4983   -6.0873 C.ar      1 <0>        -0.0749
     15 O1          4.6146    6.0315   -8.2486 O.3       1 <0>        -0.3080
     16 C13         6.0330    6.2038   -8.2295 C.3       1 <0>         0.0214
     17 C14         0.0604    0.9747   -2.4370 C.3       1 <0>         0.1257
     18 H1          0.5447    0.0240   -2.2138 H         1 <0>         0.1456
     19 C15        -0.8732    0.8092   -3.6424 C.3       1 <0>        -0.1353
     20 C16        -0.0335    1.0602   -0.0191 C.3       1 <0>         0.0467
     21 C17        -0.8537    1.5346    1.1527 C.ar      1 <0>        -0.1616
     22 C18        -0.6395    2.7966    1.6775 C.ar      1 <0>        -0.0873
     23 C19        -1.3910    3.2390    2.7467 C.ar      1 <0>        -0.0959
     24 C20        -2.3610    2.4063    3.3059 C.ar      1 <0>         0.0673
     25 C21        -2.5683    1.1324    2.7754 C.ar      1 <0>        -0.0950
     26 C22        -1.8139    0.7041    1.7025 C.ar      1 <0>        -0.0868
     27 C23        -3.1408    2.8573    4.4191 C.1       1 <0>        -0.1578
     28 C24        -3.7801    3.2270    5.3317 C.1       1 <0>        -0.0922
     29 C25        -4.5817    3.6906    6.4760 C.3       1 <0>         0.2361
     30 C26        -4.1555    5.1102    6.8554 C.3       1 <0>        -0.1778
     31 C27        -6.0635    3.6875    6.0952 C.3       1 <0>        -0.1772
     32 O2         -4.3738    2.8176    7.5880 O.3       1 <0>        -0.5543
     33 C28         0.9965   -0.5021   -4.6588 C.3       1 <0>        -0.1593
     34 H2         -0.3648    0.0244   -6.9607 H         1 <0>         0.0700
     35 H3         -1.4674   -0.7507   -5.7981 H         1 <0>         0.0685
     36 H4         -1.6960    0.9589   -6.2377 H         1 <0>         0.0640
     37 H5         -0.0509    2.6342   -5.6230 H         1 <0>         0.1008
     38 H6          1.4085    1.7094   -6.0617 H         1 <0>         0.1002
     39 H7          1.9709    2.5925   -0.8377 H         1 <0>         0.1878
     40 H8          4.9256    3.8684   -4.3014 H         1 <0>         0.1377
     41 H9          5.9317    5.0563   -6.2071 H         1 <0>         0.1444
     42 H10         2.0608    5.5369   -7.9531 H         1 <0>         0.1483
     43 H11         1.0541    4.3417   -6.0523 H         1 <0>         0.1369
     44 H12         6.3183    6.7703   -7.3431 H         1 <0>         0.0615
     45 H13         6.5173    5.2275   -8.2082 H         1 <0>         0.0613
     46 H14         6.3454    6.7448   -9.1227 H         1 <0>         0.1095
     47 H15        -1.5211   -0.0529   -3.4843 H         1 <0>         0.0993
     48 H16        -1.4829    1.7057   -3.7554 H         1 <0>         0.0905
     49 H17         0.0809   -0.0226    0.0320 H         1 <0>         0.1406
     50 H18         0.9491    1.5311    0.0108 H         1 <0>         0.1345
     51 H19         0.1147    3.4384    1.2466 H         1 <0>         0.1370
     52 H20        -1.2258    4.2261    3.1527 H         1 <0>         0.1390
     53 H21        -3.3173    0.4831    3.2040 H         1 <0>         0.1397
     54 H22        -1.9736   -0.2815    1.2908 H         1 <0>         0.1383
     55 H23        -4.3141    5.7761    6.0072 H         1 <0>         0.0724
     56 H24        -4.7491    5.4535    7.7027 H         1 <0>         0.0767
     57 H25        -3.0998    5.1124    7.1266 H         1 <0>         0.0702
     58 H26        -6.3671    2.6761    5.8249 H         1 <0>         0.0699
     59 H27        -6.6571    4.0308    6.9425 H         1 <0>         0.0768
     60 H28        -6.2221    4.3534    5.2470 H         1 <0>         0.0723
     61 H29        -4.8722    3.0632    8.3794 H         1 <0>         0.3917
     62 H30         1.6510   -0.2040   -3.8398 H         1 <0>         0.0613
     63 H31         0.4873   -1.4298   -4.3977 H         1 <0>         0.0679
     64 H32         1.5895   -0.6545   -5.5607 H         1 <0>         0.0687
     65 N3         -0.7215    1.4276   -1.2710 N.4       1 <0>        -0.5155
     66 H33        -1.6474    0.9844   -1.2913 H         1 <0>         0.4306
     67 H34        -0.8294    2.4479   -1.3113 H         1 <0>         0.4317
@<TRIPOS>BOND
     1    1    2 1
     2    1   34 1
     3    1   35 1
     4    1   36 1
     5    2   19 1
     6    2    3 1
     7    2   33 1
     8    3    4 1
     9    3   37 1
    10    3   38 1
    11    4    8 1
    12    4    5 2
    13    5    6 1
    14    5   17 1
    15    6    7 2
    16    6   39 1
    17    7    8 1
    18    8    9 1
    19    9   14 ar
    20    9   10 ar
    21   10   11 ar
    22   10   40 1
    23   11   12 ar
    24   11   41 1
    25   12   13 ar
    26   12   15 1
    27   13   14 ar
    28   13   42 1
    29   14   43 1
    30   15   16 1
    31   16   44 1
    32   16   45 1
    33   16   46 1
    34   17   18 1
    35   17   19 1
    36   17   65 1
    37   19   47 1
    38   19   48 1
    39   20   21 1
    40   20   49 1
    41   20   50 1
    42   20   65 1
    43   21   26 ar
    44   21   22 ar
    45   22   23 ar
    46   22   51 1
    47   23   24 ar
    48   23   52 1
    49   24   25 ar
    50   24   27 1
    51   25   26 ar
    52   25   53 1
    53   26   54 1
    54   27   28 3
    55   28   29 1
    56   29   30 1
    57   29   31 1
    58   29   32 1
    59   30   55 1
    60   30   56 1
    61   30   57 1
    62   31   58 1
    63   31   59 1
    64   31   60 1
    65   32   61 1
    66   33   62 1
    67   33   63 1
    68   33   64 1
    69   65   66 1
    70   65   67 1
@<TRIPOS>MOLECULE
ZINC13729080
   50    54     0     0     0
SMALL
USER_CHARGES
(5R,7S)-3-[[5-(4-bromophenyl)-2-furyl]methylamino]adamantan-1-ol
@<TRIPOS>ATOM
      1 C1          2.8084    0.1205   -0.0168 C.ar      1 <0>        -0.0796
      2 C2          4.1316   -0.2686   -0.0363 C.ar      1 <0>        -0.0856
      3 C3          5.1362    0.6841   -0.0408 C.ar      1 <0>        -0.0730
      4 C4          4.8201    2.0320   -0.0318 C.ar      1 <0>        -0.0884
      5 C5          3.5006    2.4337   -0.0177 C.ar      1 <0>        -0.0877
      6 C6          2.4831    1.4780   -0.0130 C.ar      1 <0>        -0.0319
      7 C7          1.0673    1.9017    0.0021 C.2       1 <0>         0.0884
      8 C8         -0.0126    1.0758    0.0080 C.2       1 <0>        -0.1992
      9 C9         -1.1549    1.9012    0.0171 C.2       1 <0>        -0.1324
     10 C10        -0.7202    3.1765    0.0260 C.2       1 <0>        -0.1059
     11 O1          0.6228    3.1731    0.0132 O.3       1 <0>        -0.1622
     12 C11        -1.5956    4.4031    0.0406 C.3       1 <0>         0.0910
     13 N1         -1.8673    4.7943    1.4302 N.4       1 <0>        -0.5350
     14 C12        -2.7200    5.9893    1.4835 C.3       1 <0>         0.0711
     15 C13        -2.0170    7.1494    0.7758 C.3       1 <0>        -0.1314
     16 C14        -2.9051    8.3941    0.8313 C.3       1 <0>        -0.0779
     17 H1         -2.3998    9.2282    0.3224 H         1 <0>         0.0965
     18 C15        -4.2357    8.1027    0.1346 C.3       1 <0>        -0.1237
     19 C16        -4.9387    6.9426    0.8424 C.3       1 <0>        -0.0762
     20 H2         -5.8954    6.7332    0.3416 H         1 <0>         0.1009
     21 C17        -4.0506    5.6979    0.7868 C.3       1 <0>        -0.1321
     22 C18        -5.1991    7.3185    2.3024 C.3       1 <0>        -0.1123
     23 C19        -3.8684    7.6099    2.9992 C.3       1 <0>         0.1609
     24 C20        -3.1655    8.7700    2.2914 C.3       1 <0>        -0.1499
     25 C21        -2.9804    6.3653    2.9436 C.3       1 <0>        -0.1587
     26 O2         -4.1116    7.9610    4.3628 O.3       1 <0>        -0.5769
     27 Br1         6.9478    0.1420   -0.0589 Br        1 <0>        -0.0267
     28 H3          2.0256   -0.6235   -0.0087 H         1 <0>         0.1416
     29 H4          4.3846   -1.3185   -0.0430 H         1 <0>         0.1468
     30 H5          5.6082    2.7704   -0.0354 H         1 <0>         0.1436
     31 H6          3.2552    3.4854   -0.0099 H         1 <0>         0.1370
     32 H7          0.0021   -0.0041    0.0020 H         1 <0>         0.1655
     33 H8         -2.1840    1.5735    0.0190 H         1 <0>         0.1644
     34 H9         -1.0823    5.2261   -0.4783 H         1 <0>         0.1445
     35 H10        -2.5444    4.1826   -0.4704 H         1 <0>         0.1568
     36 H11        -2.3805    3.9713    1.9491 H         1 <0>         0.4491
     37 H12        -1.0604    7.3589    1.2768 H         1 <0>         0.0882
     38 H13        -1.8297    6.8791   -0.2739 H         1 <0>         0.0897
     39 H14        -4.8742    8.9976    0.1745 H         1 <0>         0.0835
     40 H15        -4.0485    7.8324   -0.9151 H         1 <0>         0.0754
     41 H16        -3.8634    5.4276   -0.2629 H         1 <0>         0.0902
     42 H17        -4.5560    4.8638    1.2956 H         1 <0>         0.0907
     43 H18        -5.8376    8.2133    2.3423 H         1 <0>         0.0868
     44 H19        -5.7045    6.4845    2.8112 H         1 <0>         0.0779
     45 H20        -2.2088    8.9795    2.7923 H         1 <0>         0.0726
     46 H21        -3.8040    9.6648    2.3314 H         1 <0>         0.0875
     47 H22        -3.4858    5.5313    3.4525 H         1 <0>         0.0946
     48 H23        -2.0237    6.5748    3.4445 H         1 <0>         0.0883
     49 H24        -3.2691    8.2058    5.0264 H         1 <0>         0.4138
     50 H25        -0.9185    5.0149    1.9412 H         1 <0>         0.4493
@<TRIPOS>BOND
     1    1    6 ar
     2    1    2 ar
     3    1   28 1
     4    2    3 ar
     5    2   29 1
     6    3    4 ar
     7    3   27 1
     8    4    5 ar
     9    4   30 1
    10    5    6 ar
    11    5   31 1
    12    6    7 1
    13    7   11 1
    14    7    8 2
    15    8    9 1
    16    8   32 1
    17    9   10 2
    18    9   33 1
    19   10   11 1
    20   10   12 1
    21   12   13 1
    22   12   34 1
    23   12   35 1
    24   13   14 1
    25   13   36 1
    26   13   50 1
    27   14   21 1
    28   14   25 1
    29   14   15 1
    30   15   16 1
    31   15   37 1
    32   15   38 1
    33   16   17 1
    34   16   24 1
    35   16   18 1
    36   18   19 1
    37   18   39 1
    38   18   40 1
    39   19   20 1
    40   19   21 1
    41   19   22 1
    42   21   41 1
    43   21   42 1
    44   22   23 1
    45   22   43 1
    46   22   44 1
    47   23   24 1
    48   23   25 1
    49   23   26 1
    50   24   45 1
    51   24   46 1
    52   25   47 1
    53   25   48 1
    54   26   49 1
@<TRIPOS>MOLECULE
ZINC36847445
   55    57     0     0     0
SMALL
USER_CHARGES

@<TRIPOS>ATOM
      1 C1         -1.5482    1.6915   -0.4142 C.3       1 <0>        -0.1226
      2 C2         -0.5872    0.5710   -0.1109 C.ar      1 <0>        -0.0773
      3 C3          0.2421    0.0769   -1.1094 C.ar      1 <0>         0.1157
      4 C4          1.1267   -0.9553   -0.8258 C.ar      1 <0>        -0.0643
      5 C5          1.1798   -1.4879    0.4476 C.ar      1 <0>        -0.1020
      6 C6          0.3531   -0.9950    1.4400 C.ar      1 <0>        -0.0894
      7 C7         -0.5259    0.0377    1.1626 C.ar      1 <0>        -0.0352
      8 Cl1        -1.5567    0.6590    2.4137 Cl        1 <0>        -0.0529
      9 N1          0.1861    0.6177   -2.3983 N.pl3     1 <0>        -0.6117
     10 C8          0.2933   -0.1889   -3.4727 C.2       1 <0>         0.5431
     11 S1          0.4240   -1.8828   -3.2618 S.2       1 <0>        -0.5559
     12 N2          0.2977    0.3381   -4.7132 N.pl3     1 <0>        -0.7118
     13 C9          0.4143   -0.5386   -5.8811 C.3       1 <0>         0.1041
     14 C10         0.5044    0.3115   -7.1500 C.3       1 <0>         0.0132
     15 H1          1.4289    0.8885   -7.1358 H         1 <0>         0.1487
     16 C11         0.4919   -0.6017   -8.3776 C.3       1 <0>        -0.1805
     17 N3         -0.6432    1.2266   -7.2088 N.4       1 <0>        -0.3832
     18 C12        -1.8830    0.4477   -7.3191 C.3       1 <0>        -0.0353
     19 C13        -3.0865    1.3945   -7.2651 C.3       1 <0>         0.1034
     20 N4         -2.9195    2.4207   -8.3059 N.pl3     1 <0>        -0.6440
     21 C14        -1.6379    3.1400   -8.3709 C.3       1 <0>         0.1003
     22 C15        -0.5028    2.1107   -8.3727 C.3       1 <0>        -0.0272
     23 C16        -3.9488    2.7044   -9.2064 C.ar      1 <0>         0.1939
     24 C17        -5.1893    2.0968   -9.0596 C.ar      1 <0>        -0.1854
     25 C18        -6.2050    2.3799   -9.9515 C.ar      1 <0>        -0.0703
     26 C19        -5.9880    3.2668  -10.9901 C.ar      1 <0>        -0.1546
     27 C20        -4.7543    3.8734  -11.1392 C.ar      1 <0>        -0.0708
     28 C21        -3.7360    3.5991  -10.2475 C.ar      1 <0>        -0.1864
     29 H2         -1.0588    2.6487   -0.2343 H         1 <0>         0.0794
     30 H3         -1.8579    1.6322   -1.4576 H         1 <0>         0.0595
     31 H4         -2.4232    1.6041    0.2300 H         1 <0>         0.0856
     32 H5          1.7724   -1.3417   -1.6005 H         1 <0>         0.1555
     33 H6          1.8677   -2.2907    0.6682 H         1 <0>         0.1427
     34 H7          0.3962   -1.4137    2.4346 H         1 <0>         0.1411
     35 H8          0.0700    1.5732   -2.5188 H         1 <0>         0.4076
     36 H9          0.2236    1.2979   -4.8327 H         1 <0>         0.3865
     37 H10         1.3122   -1.1496   -5.7886 H         1 <0>         0.1378
     38 H11        -0.4611   -1.1856   -5.9386 H         1 <0>         0.1128
     39 H12         0.5560    0.0039   -9.2816 H         1 <0>         0.0906
     40 H13         1.3434   -1.2807   -8.3340 H         1 <0>         0.1150
     41 H14        -0.4327   -1.1788   -8.3917 H         1 <0>         0.0889
     42 H15        -1.8890   -0.0941   -8.2649 H         1 <0>         0.1427
     43 H16        -1.9413   -0.2616   -6.4935 H         1 <0>         0.1418
     44 H17        -4.0027    0.8332   -7.4479 H         1 <0>         0.1290
     45 H18        -3.1344    1.8706   -6.2857 H         1 <0>         0.0839
     46 H19        -1.5964    3.7326   -9.2849 H         1 <0>         0.1297
     47 H20        -1.5395    3.7923   -7.5032 H         1 <0>         0.0857
     48 H21         0.4559    2.6269   -8.3235 H         1 <0>         0.1422
     49 H22        -0.5505    1.5187   -9.2867 H         1 <0>         0.1397
     50 H23        -5.3592    1.4036   -8.2491 H         1 <0>         0.1224
     51 H24        -7.1697    1.9079   -9.8380 H         1 <0>         0.1290
     52 H25        -6.7838    3.4859  -11.6867 H         1 <0>         0.1273
     53 H26        -4.5882    4.5655  -11.9514 H         1 <0>         0.1287
     54 H27        -2.7741    4.0767  -10.3618 H         1 <0>         0.1222
     55 H28        -0.6719    1.7826   -6.3672 H         1 <0>         0.4109
@<TRIPOS>BOND
     1    1    2 1
     2    1   29 1
     3    1   30 1
     4    1   31 1
     5    2    7 ar
     6    2    3 ar
     7    3    4 ar
     8    3    9 1
     9    4    5 ar
    10    4   32 1
    11    5    6 ar
    12    5   33 1
    13    6    7 ar
    14    6   34 1
    15    7    8 1
    16    9   10 1
    17    9   35 1
    18   10   11 2
    19   10   12 1
    20   12   13 1
    21   12   36 1
    22   13   14 1
    23   13   37 1
    24   13   38 1
    25   14   15 1
    26   14   16 1
    27   14   17 1
    28   16   39 1
    29   16   40 1
    30   16   41 1
    31   17   22 1
    32   17   18 1
    33   17   55 1
    34   18   19 1
    35   18   42 1
    36   18   43 1
    37   19   20 1
    38   19   44 1
    39   19   45 1
    40   20   21 1
    41   20   23 1
    42   21   22 1
    43   21   46 1
    44   21   47 1
    45   22   48 1
    46   22   49 1
    47   23   28 ar
    48   23   24 ar
    49   24   25 ar
    50   24   50 1
    51   25   26 ar
    52   25   51 1
    53   26   27 ar
    54   26   52 1
    55   27   28 ar
    56   27   53 1
    57   28   54 1
@<TRIPOS>MOLECULE
ZINC50362479
   39    40     0     0     0
SMALL
USER_CHARGES

@<TRIPOS>ATOM
      1 C1          0.0579   -2.8111   -2.5241 C.3       1 <0>        -0.1251
      2 C2          0.0377   -2.0703   -1.2119 C.ar      1 <0>        -0.0263
      3 C3          0.0031   -0.6880   -1.1997 C.ar      1 <0>        -0.1560
      4 C4         -0.0151   -0.0042    0.0022 C.ar      1 <0>        -0.0286
      5 C5          0.0008   -0.7005    1.1948 C.ar      1 <0>        -0.2080
      6 C6          0.0351   -2.0891    1.1861 C.ar      1 <0>         0.1896
      7 C7          0.0480   -2.7729   -0.0230 C.ar      1 <0>        -0.1831
      8 N1          0.0513   -2.7964    2.3904 N.pl3     1 <0>        -0.6440
      9 C8         -0.0391   -4.2586    2.3824 C.3       1 <0>         0.0744
     10 C9          0.1585   -2.0761    3.6616 C.3       1 <0>         0.2201
     11 H1          0.1262   -1.0027    3.4748 H         1 <0>         0.1459
     12 C10        -1.0066   -2.4708    4.5713 C.3       1 <0>        -0.0244
     13 N2         -2.2762   -2.2363    3.8706 N.4       1 <0>        -0.6321
     14 C11         1.4612   -2.4304    4.3314 C.2       1 <0>        -0.0307
     15 C12         2.2620   -1.5771    4.9944 C.2       1 <0>        -0.1407
     16 C13         3.3672   -2.3281    5.4580 C.2       1 <0>        -0.1443
     17 C14         3.1749   -3.5970    5.0498 C.2       1 <0>         0.0254
     18 O1          2.0162   -3.6532    4.3722 O.3       1 <0>        -0.1380
     19 Br1         4.3354   -5.0531    5.3797 Br        1 <0>         0.0965
     20 Br2         4.8334   -1.6757    6.4583 Br        1 <0>         0.0309
     21 C15        -0.0517    1.5023    0.0106 C.3       1 <0>        -0.1235
     22 H2         -0.9647   -3.0111   -2.8442 H         1 <0>         0.0778
     23 H3          0.5619   -2.2042   -3.2763 H         1 <0>         0.0740
     24 H4          0.5910   -3.7538   -2.4010 H         1 <0>         0.0703
     25 H5         -0.0094   -0.1411   -2.1309 H         1 <0>         0.1268
     26 H6         -0.0130   -0.1659    2.1331 H         1 <0>         0.1181
     27 H7          0.0706   -3.8526   -0.0333 H         1 <0>         0.1269
     28 H8          0.9630   -4.6843    2.3297 H         1 <0>         0.0673
     29 H9         -0.5301   -4.5973    3.2947 H         1 <0>         0.0665
     30 H10        -0.6173   -4.5822    1.5169 H         1 <0>         0.0863
     31 H11        -0.9240   -3.5264    4.8302 H         1 <0>         0.1433
     32 H12        -0.9772   -1.8703    5.4806 H         1 <0>         0.1562
     33 H13        -2.3526   -1.2592    3.6309 H         1 <0>         0.4371
     34 H14        -2.3034   -2.7922    3.0289 H         1 <0>         0.4368
     35 H15         2.0937   -0.5208    5.1436 H         1 <0>         0.1726
     36 H16        -1.0879    1.8405    0.0114 H         1 <0>         0.0762
     37 H17         0.4521    1.8730    0.9033 H         1 <0>         0.0683
     38 H18         0.4541    1.8830   -0.8767 H         1 <0>         0.0744
     39 H19        -3.0446   -2.4966    4.4705 H         1 <0>         0.4431
@<TRIPOS>BOND
     1    1    2 1
     2    1   22 1
     3    1   23 1
     4    1   24 1
     5    2    7 ar
     6    2    3 ar
     7    3    4 ar
     8    3   25 1
     9    4    5 ar
    10    4   21 1
    11    5    6 ar
    12    5   26 1
    13    6    7 ar
    14    6    8 1
    15    7   27 1
    16    8    9 1
    17    8   10 1
    18    9   28 1
    19    9   29 1
    20    9   30 1
    21   10   11 1
    22   10   12 1
    23   10   14 1
    24   12   13 1
    25   12   31 1
    26   12   32 1
    27   13   33 1
    28   13   34 1
    29   13   39 1
    30   14   18 1
    31   14   15 2
    32   15   16 1
    33   15   35 1
    34   16   17 2
    35   16   20 1
    36   17   18 1
    37   17   19 1
    38   21   36 1
    39   21   37 1
    40   21   38 1
@<TRIPOS>MOLECULE
ZINC65255963
   57    61     0     0     0
SMALL
USER_CHARGES

@<TRIPOS>ATOM
      1 C1          0.0160    1.4146    0.0547 C.ar      1 <0>        -0.0866
      2 C2          1.2060    2.1178    0.0430 C.ar      1 <0>        -0.1044
      3 C3          2.4099    1.4388    0.0228 C.ar      1 <0>        -0.0828
      4 C4          2.4238    0.0565    0.0147 C.ar      1 <0>        -0.1498
      5 C5          1.2338   -0.6467    0.0273 C.ar      1 <0>        -0.1191
      6 C6          0.0298    0.0323    0.0461 C.ar      1 <0>        -0.1041
      7 C7          3.7363   -0.6837   -0.0084 C.3       1 <0>         0.0724
      8 H1          4.5322   -0.0231    0.3354 H         1 <0>         0.1490
      9 C8          4.0373   -1.1454   -1.4381 C.3       1 <0>         0.1091
     10 N1          5.2521   -1.9747   -1.4143 N.pl3     1 <0>        -0.6254
     11 C9          5.3218   -3.0744   -0.4396 C.3       1 <0>         0.1017
     12 C10         4.9600   -2.5216    0.9430 C.3       1 <0>        -0.0223
     13 N2          3.6544   -1.8532    0.8757 N.4       1 <0>        -0.5040
     14 C11         6.3044   -1.7266   -2.2883 C.ar      1 <0>         0.3935
     15 C12         6.2082   -0.6818   -3.2019 C.ar      1 <0>        -0.1730
     16 C13         7.2732   -0.4458   -4.0717 C.ar      1 <0>        -0.0397
     17 C14         8.3968   -1.2770   -3.9842 C.ar      1 <0>        -0.1849
     18 C15         8.4117   -2.2912   -3.0494 C.ar      1 <0>         0.1555
     19 N3          7.3888   -2.4832   -2.2387 N.ar      1 <0>        -0.5194
     20 C16         7.2167    0.6545   -5.0619 C.2       1 <0>         0.5569
     21 O1          6.2334    1.3659   -5.1242 O.2       1 <0>        -0.5060
     22 N4          8.2557    0.8666   -5.8936 N.am      1 <0>        -0.6594
     23 C17         8.2513    1.9718   -6.7503 C.ar      1 <0>         0.1351
     24 C18         7.6828    3.1705   -6.3383 C.ar      1 <0>        -0.1157
     25 C19         7.6818    4.2578   -7.1874 C.ar      1 <0>        -0.0885
     26 C20         8.2452    4.1601   -8.4497 C.ar      1 <0>        -0.1019
     27 C21         8.8118    2.9682   -8.8627 C.ar      1 <0>        -0.0765
     28 C22         8.8199    1.8766   -8.0124 C.ar      1 <0>        -0.1267
     29 C23         9.3532    3.1192  -10.2683 C.3       1 <0>        -0.0839
     30 C24         8.6726    4.3856  -10.8296 C.3       1 <0>        -0.1218
     31 C25         8.3679    5.1928   -9.5499 C.3       1 <0>        -0.0846
     32 H2         -0.9246    1.9451    0.0751 H         1 <0>         0.1374
     33 H3          1.1952    3.1977    0.0494 H         1 <0>         0.1387
     34 H4          3.3397    1.9882    0.0129 H         1 <0>         0.1346
     35 H5          1.2446   -1.7266    0.0206 H         1 <0>         0.1202
     36 H6         -0.8999   -0.5171    0.0556 H         1 <0>         0.1370
     37 H7          3.2007   -1.7321   -1.8174 H         1 <0>         0.0975
     38 H8          4.1991   -0.2772   -2.0770 H         1 <0>         0.1308
     39 H9          4.6148   -3.8559   -0.7180 H         1 <0>         0.0901
     40 H10         6.3326   -3.4815   -0.4183 H         1 <0>         0.1414
     41 H11         4.9125   -3.3406    1.6607 H         1 <0>         0.1487
     42 H12         5.7190   -1.8056    1.2581 H         1 <0>         0.1358
     43 H13         3.3821   -1.5557    1.8006 H         1 <0>         0.4337
     44 H14         5.3233   -0.0637   -3.2374 H         1 <0>         0.1475
     45 H15         9.2410   -1.1260   -4.6407 H         1 <0>         0.1442
     46 H16         9.2755   -2.9354   -2.9774 H         1 <0>         0.1731
     47 H17         9.0066    0.2525   -5.8981 H         1 <0>         0.4123
     48 H18         7.2423    3.2509   -5.3555 H         1 <0>         0.1320
     49 H19         7.2395    5.1895   -6.8670 H         1 <0>         0.1263
     50 H20         9.2661    0.9469   -8.3335 H         1 <0>         0.1254
     51 H21        10.4351    3.2502  -10.2448 H         1 <0>         0.0839
     52 H22         9.0897    2.2498  -10.8706 H         1 <0>         0.0773
     53 H23         9.3525    4.9345  -11.4811 H         1 <0>         0.0804
     54 H24         7.7523    4.1304  -11.3549 H         1 <0>         0.0740
     55 H25         7.4315    5.7395   -9.6615 H         1 <0>         0.0772
     56 H26         9.1850    5.8810   -9.3332 H         1 <0>         0.0829
     57 H27         2.9663   -2.4976    0.5161 H         1 <0>         0.4246
@<TRIPOS>BOND
     1    1    6 ar
     2    1    2 ar
     3    1   32 1
     4    2    3 ar
     5    2   33 1
     6    3    4 ar
     7    3   34 1
     8    4    5 ar
     9    4    7 1
    10    5    6 ar
    11    5   35 1
    12    6   36 1
    13    7    8 1
    14    7   13 1
    15    7    9 1
    16    9   10 1
    17    9   37 1
    18    9   38 1
    19   10   11 1
    20   10   14 1
    21   11   12 1
    22   11   39 1
    23   11   40 1
    24   12   13 1
    25   12   41 1
    26   12   42 1
    27   13   43 1
    28   13   57 1
    29   14   19 ar
    30   14   15 ar
    31   15   16 ar
    32   15   44 1
    33   16   17 ar
    34   16   20 1
    35   17   18 ar
    36   17   45 1
    37   18   19 ar
    38   18   46 1
    39   20   21 2
    40   20   22 am
    41   22   23 1
    42   22   47 1
    43   23   28 ar
    44   23   24 ar
    45   24   25 ar
    46   24   48 1
    47   25   26 ar
    48   25   49 1
    49   26   31 1
    50   26   27 ar
    51   27   28 ar
    52   27   29 1
    53   28   50 1
    54   29   30 1
    55   29   51 1
    56   29   52 1
    57   30   31 1
    58   30   53 1
    59   30   54 1
    60   31   55 1
    61   31   56 1
@<TRIPOS>MOLECULE
ZINC13519137
   57    59     0     0     0
SMALL
USER_CHARGES
(2R,3S,4S,5S,6R)-2-[(2R,3S,4R,5R,6S)-3,5-dihydroxy-2-(hydroxymethyl)-6-(4-nitrophenoxy)tetrahydropyran-4-yl]oxy-6-(hydroxymethyl)tetrahydropyran-3,4,5-triol
@<TRIPOS>ATOM
      1 C1         -0.0379    5.3813   -6.3071 C.ar      1 <0>        -0.0175
      2 C2          0.7779    4.5877   -5.5241 C.ar      1 <0>        -0.1475
      3 C3          0.4094    4.2898   -4.2202 C.ar      1 <0>         0.1828
      4 C4         -0.7806    4.7858   -3.7077 C.ar      1 <0>        -0.1836
      5 C5         -1.5903    5.5833   -4.4930 C.ar      1 <0>        -0.0134
      6 C6         -1.2208    5.8786   -5.7922 C.ar      1 <0>        -0.0807
      7 N1         -2.0927    6.7291   -6.6331 N.pl3     1 <0>         0.0333
      8 O1         -1.7680    6.9902   -7.7776 O.2       1 <0>        -0.1622
      9 O2         -3.1350    7.1677   -6.1806 O.3       1 <0>        -0.1633
     10 O3          1.2100    3.5089   -3.4481 O.3       1 <0>        -0.2884
     11 C7          0.7674    3.2437   -2.1155 C.3       1 <0>         0.2282
     12 H1         -0.2343    2.8150   -2.1438 H         1 <0>         0.0824
     13 C8          1.7268    2.2564   -1.4459 C.3       1 <0>         0.0794
     14 H2          2.7364    2.6673   -1.4537 H         1 <0>         0.0983
     15 C9          1.2801    2.0237    0.0007 C.3       1 <0>         0.1107
     16 H3          1.9895    1.3647    0.5013 H         1 <0>         0.1097
     17 C10         1.2283    3.3696    0.7302 C.3       1 <0>         0.0861
     18 H4          0.8582    3.2201    1.7445 H         1 <0>         0.0912
     19 C11         0.2881    4.3139   -0.0235 C.3       1 <0>         0.0705
     20 H5         -0.7198    3.8991   -0.0242 H         1 <0>         0.0885
     21 O4          0.7433    4.4625   -1.3699 O.3       1 <0>        -0.3726
     22 C12         0.2774    5.6801    0.6652 C.3       1 <0>         0.0791
     23 O5         -0.6863    6.5248    0.0328 O.3       1 <0>        -0.5615
     24 O6          2.5386    3.9378    0.7776 O.3       1 <0>        -0.5454
     25 O7         -0.0173    1.4248    0.0099 O.3       1 <0>        -0.3842
     26 C13         0.0021   -0.0041    0.0020 C.3       1 <0>         0.2141
     27 H6          0.6596   -0.3543   -0.7936 H         1 <0>         0.1309
     28 C14        -1.4148   -0.5326   -0.2365 C.3       1 <0>         0.0611
     29 H7         -1.7989   -0.1341   -1.1755 H         1 <0>         0.0790
     30 C15        -2.3187   -0.0863    0.9168 C.3       1 <0>         0.0856
     31 H8         -2.3803    1.0018    0.9335 H         1 <0>         0.0855
     32 C16        -1.7265   -0.5863    2.2380 C.3       1 <0>         0.0938
     33 H9         -1.7124   -1.6762    2.2415 H         1 <0>         0.0821
     34 C17        -0.2976   -0.0557    2.3810 C.3       1 <0>         0.1037
     35 H10        -0.3163    1.0335    2.4181 H         1 <0>         0.0788
     36 O8          0.4813   -0.4811    1.2609 O.3       1 <0>        -0.3588
     37 C18         0.3224   -0.5996    3.6697 C.3       1 <0>         0.0881
     38 O9          1.6118   -0.0144    3.8619 O.3       1 <0>        -0.5681
     39 O10        -2.5220   -0.1155    3.3278 O.3       1 <0>        -0.5579
     40 O11        -3.6257   -0.6364    0.7402 O.3       1 <0>        -0.5527
     41 O12        -1.3881   -1.9600   -0.2974 O.3       1 <0>        -0.5328
     42 O13         1.7091    1.0167   -2.1564 O.3       1 <0>        -0.5547
     43 H11         0.2484    5.6131   -7.3223 H         1 <0>         0.1619
     44 H12         1.7020    4.1997   -5.9266 H         1 <0>         0.1564
     45 H13        -1.0717    4.5519   -2.6943 H         1 <0>         0.1529
     46 H14        -2.5150    5.9727   -4.0933 H         1 <0>         0.1567
     47 H15         0.0169    5.5551    1.7163 H         1 <0>         0.0704
     48 H16         1.2653    6.1341    0.5873 H         1 <0>         0.0608
     49 H17        -0.7475    7.4093    0.4188 H         1 <0>         0.3871
     50 H18         2.5804    4.7932    1.2267 H         1 <0>         0.3888
     51 H19        -0.3194   -0.3506    4.5148 H         1 <0>         0.0740
     52 H20         0.4222   -1.6825    3.5960 H         1 <0>         0.0559
     53 H21         2.0645   -0.3143    4.6620 H         1 <0>         0.3840
     54 H22        -3.4414   -0.4140    3.3014 H         1 <0>         0.3925
     55 H23        -4.0610   -0.3611   -0.0782 H         1 <0>         0.3851
     56 H24        -0.8297   -2.3132   -1.0035 H         1 <0>         0.3838
     57 H25         1.9814    1.0896   -3.0814 H         1 <0>         0.3922
@<TRIPOS>BOND
     1    1    6 ar
     2    1    2 ar
     3    1   43 1
     4    2    3 ar
     5    2   44 1
     6    3    4 ar
     7    3   10 1
     8    4    5 ar
     9    4   45 1
    10    5    6 ar
    11    5   46 1
    12    6    7 1
    13    7    8 2
    14    7    9 1
    15   10   11 1
    16   11   12 1
    17   11   21 1
    18   11   13 1
    19   13   14 1
    20   13   15 1
    21   13   42 1
    22   15   16 1
    23   15   17 1
    24   15   25 1
    25   17   18 1
    26   17   19 1
    27   17   24 1
    28   19   20 1
    29   19   21 1
    30   19   22 1
    31   22   23 1
    32   22   47 1
    33   22   48 1
    34   23   49 1
    35   24   50 1
    36   25   26 1
    37   26   27 1
    38   26   36 1
    39   26   28 1
    40   28   29 1
    41   28   30 1
    42   28   41 1
    43   30   31 1
    44   30   32 1
    45   30   40 1
    46   32   33 1
    47   32   34 1
    48   32   39 1
    49   34   35 1
    50   34   36 1
    51   34   37 1
    52   37   38 1
    53   37   51 1
    54   37   52 1
    55   38   53 1
    56   39   54 1
    57   40   55 1
    58   41   56 1
    59   42   57 1
@<TRIPOS>MOLECULE
ZINC31167917
   71    73     0     0     0
SMALL
USER_CHARGES
(2R,3S,4R,5S,6S)-2-[(2S)-2-[2-hydroxy-5-[(E)-3-hydroxyprop-1-enyl]-3-methoxy-phenyl]-3-(4-hydroxy-3-methoxy-phenyl)propoxy]-6-(hydroxymethyl)tetrahydropyran-3,4,5-triol
@<TRIPOS>ATOM
      1 C1          0.0621   -2.0001    3.5670 C.3       1 <0>         0.0240
      2 O1          0.0617   -2.7719    2.3643 O.3       1 <0>        -0.3091
      3 C2          0.0417   -2.0856    1.1904 C.ar      1 <0>         0.0890
      4 C3          0.0229   -0.7001    1.1962 C.ar      1 <0>        -0.1600
      5 C4          0.0021   -0.0041    0.0020 C.ar      1 <0>        -0.0748
      6 C5         -0.0057   -0.6874   -1.1998 C.ar      1 <0>        -0.1044
      7 C6          0.0187   -2.0695   -1.2128 C.ar      1 <0>        -0.1783
      8 C7          0.0396   -2.7733   -0.0194 C.ar      1 <0>         0.1221
      9 O2          0.0575   -4.1331   -0.0303 O.3       1 <0>        -0.5023
     10 C8         -0.0184    1.5028    0.0103 C.3       1 <0>        -0.0680
     11 C9          1.4170    2.0324   -0.0006 C.3       1 <0>        -0.0259
     12 H1          1.9851    1.5903    0.8312 H         1 <0>         0.0964
     13 C10         1.3994    3.5564    0.1335 C.3       1 <0>         0.0698
     14 O3          0.8734    3.9159    1.4126 O.3       1 <0>        -0.3851
     15 C11         0.8134    5.3253    1.6411 C.3       1 <0>         0.2585
     16 H2          0.2922    5.7780    0.7847 H         1 <0>         0.1120
     17 C12         0.1236    5.5964    2.9806 C.3       1 <0>         0.1262
     18 H3         -0.0348    6.6731    3.1407 H         1 <0>         0.0861
     19 C13         0.9549    4.9776    4.1086 C.3       1 <0>         0.1013
     20 H4          0.9627    3.8792    4.0491 H         1 <0>         0.0833
     21 C14         2.3732    5.5540    4.0580 C.3       1 <0>         0.0648
     22 H5          3.0047    5.1425    4.8592 H         1 <0>         0.0660
     23 C15         2.9761    5.2845    2.6769 C.3       1 <0>         0.0578
     24 H6          3.0102    4.2069    2.4587 H         1 <0>         0.0839
     25 O4          2.1383    5.8599    1.6723 O.3       1 <0>        -0.3686
     26 C16         4.3703    5.9096    2.5980 C.3       1 <0>         0.0937
     27 O5          4.9795    5.5598    1.3536 O.3       1 <0>        -0.5894
     28 O6          2.3248    6.9627    4.2927 O.3       1 <0>        -0.5757
     29 O7          0.3572    5.2887    5.3688 O.3       1 <0>        -0.5891
     30 O8         -1.1806    5.0124    2.9730 O.3       1 <0>        -0.5841
     31 C17         2.0838    1.6498   -1.2967 C.ar      1 <0>        -0.0805
     32 C18         1.5579    2.0848   -2.4960 C.ar      1 <0>        -0.0955
     33 C19         2.1740    1.7316   -3.6970 C.ar      1 <0>        -0.0612
     34 C20         3.3223    0.9379   -3.6821 C.ar      1 <0>        -0.1612
     35 C21         3.8443    0.5052   -2.4773 C.ar      1 <0>         0.0380
     36 C22         3.2276    0.8662   -1.2814 C.ar      1 <0>         0.1567
     37 O9          3.7452    0.4446   -0.0970 O.3       1 <0>        -0.4984
     38 O10         4.9631   -0.2677   -2.4593 O.3       1 <0>        -0.3259
     39 C23         5.5465   -0.5941   -3.7223 C.3       1 <0>         0.0297
     40 C24         1.6123    2.1970   -4.9822 C.2       1 <0>        -0.1006
     41 C25         2.1989    1.8605   -6.1228 C.2       1 <0>        -0.1528
     42 C26         1.6261    2.3352   -7.4333 C.3       1 <0>         0.1152
     43 O11         2.6816    2.8157   -8.2683 O.3       1 <0>        -0.6008
     44 H7          0.0792   -2.6748    4.4356 H         1 <0>         0.0997
     45 H8         -0.8443   -1.3780    3.6037 H         1 <0>         0.0546
     46 H9          0.9518   -1.3535    3.5874 H         1 <0>         0.0541
     47 H10         0.0248   -0.1640    2.1338 H         1 <0>         0.1316
     48 H11        -0.0268   -0.1401   -2.1306 H         1 <0>         0.1214
     49 H12         0.0170   -2.6008   -2.1531 H         1 <0>         0.1285
     50 H13         0.0558   -4.6755   -0.9873 H         1 <0>         0.4274
     51 H14        -0.5505    1.8672   -0.8809 H         1 <0>         0.0725
     52 H15        -0.5333    1.8575    0.9153 H         1 <0>         0.0867
     53 H16         2.4239    3.9449    0.0359 H         1 <0>         0.0637
     54 H17         0.7672    3.9868   -0.6571 H         1 <0>         0.0527
     55 H18         4.2861    7.0040    2.6702 H         1 <0>         0.0539
     56 H19         4.9880    5.5340    3.4270 H         1 <0>         0.0567
     57 H20         5.9911    5.9205    1.1159 H         1 <0>         0.4116
     58 H21         3.2535    7.5523    4.2942 H         1 <0>         0.4033
     59 H22         0.8172    4.9265    6.3001 H         1 <0>         0.4111
     60 H23        -1.8297    5.1047    3.8563 H         1 <0>         0.4184
     61 H24         0.6692    2.6984   -2.5051 H         1 <0>         0.1305
     62 H25         3.8017    0.6622   -4.6098 H         1 <0>         0.1312
     63 H26         4.6526   -0.1771   -0.0835 H         1 <0>         0.4367
     64 H27         6.4380   -1.2187   -3.5639 H         1 <0>         0.1035
     65 H28         5.8346    0.3310   -4.2431 H         1 <0>         0.0566
     66 H29         4.8159   -1.1458   -4.3320 H         1 <0>         0.0556
     67 H30         0.7076    2.8226   -4.9927 H         1 <0>         0.1237
     68 H31         3.1036    1.2349   -6.1124 H         1 <0>         0.1169
     69 H32         1.1140    1.5000   -7.9336 H         1 <0>         0.0534
     70 H33         0.9076    3.1470   -7.2469 H         1 <0>         0.0492
     71 H34         2.4550    3.2057   -9.2716 H         1 <0>         0.4120
@<TRIPOS>BOND
     1    1    2 1
     2    1   44 1
     3    1   45 1
     4    1   46 1
     5    2    3 1
     6    3    8 ar
     7    3    4 ar
     8    4    5 ar
     9    4   47 1
    10    5    6 ar
    11    5   10 1
    12    6    7 ar
    13    6   48 1
    14    7    8 ar
    15    7   49 1
    16    8    9 1
    17    9   50 1
    18   10   11 1
    19   10   51 1
    20   10   52 1
    21   11   12 1
    22   11   13 1
    23   11   31 1
    24   13   14 1
    25   13   53 1
    26   13   54 1
    27   14   15 1
    28   15   16 1
    29   15   25 1
    30   15   17 1
    31   17   18 1
    32   17   19 1
    33   17   30 1
    34   19   20 1
    35   19   21 1
    36   19   29 1
    37   21   22 1
    38   21   23 1
    39   21   28 1
    40   23   24 1
    41   23   25 1
    42   23   26 1
    43   26   27 1
    44   26   55 1
    45   26   56 1
    46   27   57 1
    47   28   58 1
    48   29   59 1
    49   30   60 1
    50   31   36 ar
    51   31   32 ar
    52   32   33 ar
    53   32   61 1
    54   33   34 ar
    55   33   40 1
    56   34   35 ar
    57   34   62 1
    58   35   36 ar
    59   35   38 1
    60   36   37 1
    61   37   63 1
    62   38   39 1
    63   39   64 1
    64   39   65 1
    65   39   66 1
    66   40   41 2
    67   40   67 1
    68   41   42 1
    69   41   68 1
    70   42   43 1
    71   42   69 1
    72   42   70 1
    73   43   71 1
@<TRIPOS>MOLECULE
ZINC35645753
   57    59     0     0     0
SMALL
USER_CHARGES

@<TRIPOS>ATOM
      1 C1         -0.0167    1.3784    0.0096 C.ar      1 <0>        -0.0179
      2 C2          1.1695    2.0865    0.0021 C.ar      1 <0>        -0.1457
      3 C3          2.3802    1.4093   -0.0131 C.ar      1 <0>         0.1802
      4 C4          2.3963    0.0221   -0.0207 C.ar      1 <0>        -0.1833
      5 C5          1.2074   -0.6814   -0.0132 C.ar      1 <0>        -0.0131
      6 C6          0.0021   -0.0041    0.0020 C.ar      1 <0>        -0.0842
      7 N1         -1.2702   -0.7602    0.0106 N.pl3     1 <0>         0.0385
      8 O1         -2.3247   -0.1690    0.0243 O.2       1 <0>        -0.1608
      9 O2         -1.2550   -1.9691    0.0040 O.3       1 <0>        -0.1614
     10 O3          3.5484    2.1036   -0.0210 O.3       1 <0>        -0.2845
     11 C7          4.7565    1.3405   -0.0366 C.3       1 <0>         0.2204
     12 H1          4.7409    0.6524   -0.8818 H         1 <0>         0.0808
     13 C8          5.9547    2.2842   -0.1688 C.3       1 <0>         0.0754
     14 H2          5.8947    2.8186   -1.1169 H         1 <0>         0.0824
     15 C9          7.2478    1.4643   -0.1242 C.3       1 <0>         0.1079
     16 H3          7.2777    0.7840   -0.9753 H         1 <0>         0.1000
     17 C10         7.2836    0.6580    1.1777 C.3       1 <0>         0.0884
     18 H4          7.3037    1.3398    2.0279 H         1 <0>         0.0891
     19 C11         6.0340   -0.2228    1.2578 C.3       1 <0>         0.0728
     20 H5          6.0352   -0.9316    0.4297 H         1 <0>         0.0827
     21 O4          4.8675    0.5989    1.1798 O.3       1 <0>        -0.3693
     22 C12         6.0325   -0.9869    2.5834 C.3       1 <0>         0.0836
     23 O5          4.9294   -1.8949    2.6086 O.3       1 <0>        -0.5623
     24 O6          8.4516   -0.1650    1.1978 O.3       1 <0>        -0.5427
     25 O7          8.3733    2.3434   -0.1752 O.3       1 <0>        -0.3486
     26 C13         8.8293    2.6275   -1.4993 C.3       1 <0>         0.2092
     27 H6          8.0023    3.0170   -2.0929 H         1 <0>         0.1023
     28 C14         9.9504    3.6684   -1.4408 C.3       1 <0>         0.0668
     29 H7         10.2711    3.9156   -2.4528 H         1 <0>         0.0937
     30 C15        11.1323    3.0909   -0.6560 C.3       1 <0>         0.0869
     31 H8         10.8251    2.8898    0.3703 H         1 <0>         0.0819
     32 C16        11.5840    1.7869   -1.3206 C.3       1 <0>         0.0898
     33 H9         12.3889    1.3403   -0.7369 H         1 <0>         0.0805
     34 C17        10.3998    0.8186   -1.3838 C.3       1 <0>         0.0989
     35 H10        10.0725    0.5782   -0.3723 H         1 <0>         0.1074
     36 O8          9.3244    1.4292   -2.1003 O.3       1 <0>        -0.3644
     37 C18        10.8272   -0.4640   -2.1001 C.3       1 <0>         0.0903
     38 O9          9.7590   -1.4123   -2.0568 O.3       1 <0>        -0.5645
     39 O10        12.0491    2.0613   -2.6437 O.3       1 <0>        -0.5511
     40 O11        12.2107    4.0285   -0.6571 O.3       1 <0>        -0.5621
     41 O12         9.4736    4.8476   -0.7896 O.3       1 <0>        -0.5494
     42 O13         5.9451    3.2220    0.9094 O.3       1 <0>        -0.5305
     43 H11        -0.9594    1.9052    0.0260 H         1 <0>         0.1621
     44 H12         1.1543    3.1664    0.0077 H         1 <0>         0.1567
     45 H13         3.3375   -0.5074   -0.0330 H         1 <0>         0.1534
     46 H14         1.2194   -1.7613   -0.0191 H         1 <0>         0.1575
     47 H15         6.9641   -1.5441    2.6827 H         1 <0>         0.0687
     48 H16         5.9414   -0.2814    3.4093 H         1 <0>         0.0622
     49 H17         4.8659   -2.4142    3.4218 H         1 <0>         0.3872
     50 H18         8.5390   -0.7044    1.9956 H         1 <0>         0.3804
     51 H19        11.0695   -0.2369   -3.1383 H         1 <0>         0.0637
     52 H20        11.7040   -0.8816   -1.6053 H         1 <0>         0.0611
     53 H21         9.9602   -2.2515   -2.4930 H         1 <0>         0.3810
     54 H22        12.7973    2.6729   -2.6786 H         1 <0>         0.3873
     55 H23        11.9915    4.8806   -0.2558 H         1 <0>         0.3936
     56 H24         8.7210    5.2640   -1.2315 H         1 <0>         0.3846
     57 H25         5.1512    3.7729    0.9444 H         1 <0>         0.3865
@<TRIPOS>BOND
     1    1    6 ar
     2    1    2 ar
     3    1   43 1
     4    2    3 ar
     5    2   44 1
     6    3    4 ar
     7    3   10 1
     8    4    5 ar
     9    4   45 1
    10    5    6 ar
    11    5   46 1
    12    6    7 1
    13    7    8 2
    14    7    9 1
    15   10   11 1
    16   11   12 1
    17   11   21 1
    18   11   13 1
    19   13   14 1
    20   13   15 1
    21   13   42 1
    22   15   16 1
    23   15   17 1
    24   15   25 1
    25   17   18 1
    26   17   19 1
    27   17   24 1
    28   19   20 1
    29   19   21 1
    30   19   22 1
    31   22   23 1
    32   22   47 1
    33   22   48 1
    34   23   49 1
    35   24   50 1
    36   25   26 1
    37   26   27 1
    38   26   36 1
    39   26   28 1
    40   28   29 1
    41   28   30 1
    42   28   41 1
    43   30   31 1
    44   30   32 1
    45   30   40 1
    46   32   33 1
    47   32   34 1
    48   32   39 1
    49   34   35 1
    50   34   36 1
    51   34   37 1
    52   37   38 1
    53   37   51 1
    54   37   52 1
    55   38   53 1
    56   39   54 1
    57   40   55 1
    58   41   56 1
    59   42   57 1
@<TRIPOS>MOLECULE
ZINC39937359
   57    59     0     0     0
SMALL
USER_CHARGES

@<TRIPOS>ATOM
      1 C1          0.1370    1.6033    0.9513 C.ar      1 <0>        -0.0174
      2 C2          1.3318    2.2535    0.7103 C.ar      1 <0>        -0.1450
      3 C3          2.4799    1.5190    0.4512 C.ar      1 <0>         0.1863
      4 C4          2.4248    0.1329    0.4347 C.ar      1 <0>        -0.1928
      5 C5          1.2276   -0.5126    0.6763 C.ar      1 <0>        -0.0127
      6 C6          0.0848    0.2217    0.9343 C.ar      1 <0>        -0.0877
      7 N1         -1.1965   -0.4724    1.1933 N.pl3     1 <0>         0.0399
      8 O1         -2.1963    0.1686    1.4194 O.2       1 <0>        -0.1632
      9 O2         -1.2433   -1.6804    1.1787 O.3       1 <0>        -0.1644
     10 O3          3.6564    2.1564    0.2134 O.3       1 <0>        -0.2894
     11 C7          4.7976    1.3363   -0.0460 C.3       1 <0>         0.2097
     12 H1          4.8788    0.5716    0.7264 H         1 <0>         0.1185
     13 C8          6.0601    2.2023   -0.0419 C.3       1 <0>         0.0983
     14 H2          6.1471    2.7147    0.9162 H         1 <0>         0.0933
     15 C9          5.9646    3.2358   -1.1683 C.3       1 <0>         0.1066
     16 H3          6.8845    3.8193   -1.2068 H         1 <0>         0.0975
     17 C10         5.7646    2.5062   -2.5002 C.3       1 <0>         0.0700
     18 H4          6.6335    1.8815   -2.7075 H         1 <0>         0.0841
     19 C11         4.5135    1.6285   -2.4095 C.3       1 <0>         0.0658
     20 H5          3.6393    2.2578   -2.2425 H         1 <0>         0.0923
     21 O4          4.6546    0.7108   -1.3229 O.3       1 <0>        -0.3578
     22 C12         4.3402    0.8505   -3.7154 C.3       1 <0>         0.0808
     23 O5          3.1119    0.1212   -3.6760 O.3       1 <0>        -0.5608
     24 O6          5.6031    3.4629   -3.5493 O.3       1 <0>        -0.5552
     25 O7          4.8568    4.1055   -0.9266 O.3       1 <0>        -0.3514
     26 C13         5.0892    5.4627   -1.3085 C.3       1 <0>         0.2156
     27 H6          5.4966    5.4914   -2.3191 H         1 <0>         0.1180
     28 C14         3.7694    6.2376   -1.2680 C.3       1 <0>         0.0689
     29 H7          3.9386    7.2626   -1.5980 H         1 <0>         0.0907
     30 C15         3.2338    6.2437    0.1671 C.3       1 <0>         0.0867
     31 H8          3.0177    5.2222    0.4800 H         1 <0>         0.0814
     32 C16         4.2927    6.8501    1.0931 C.3       1 <0>         0.0905
     33 H9          3.9421    6.8078    2.1243 H         1 <0>         0.0793
     34 C17         5.5922    6.0516    0.9613 C.3       1 <0>         0.1038
     35 H10         5.4215    5.0240    1.2823 H         1 <0>         0.0861
     36 O8          6.0190    6.0601   -0.4026 O.3       1 <0>        -0.3631
     37 C18         6.6728    6.6872    1.8383 C.3       1 <0>         0.0870
     38 O9          7.8495    5.8772    1.8065 O.3       1 <0>        -0.5685
     39 O10         4.5272    8.2105    0.7239 O.3       1 <0>        -0.5498
     40 O11         2.0389    7.0251    0.2280 O.3       1 <0>        -0.5622
     41 O12         2.8197    5.6087   -2.1308 O.3       1 <0>        -0.5502
     42 O13         7.2071    1.3751   -0.2470 O.3       1 <0>        -0.5335
     43 H11        -0.7561    2.1745    1.1575 H         1 <0>         0.1591
     44 H12         1.3720    3.3327    0.7233 H         1 <0>         0.1516
     45 H13         3.3171   -0.4410    0.2328 H         1 <0>         0.1527
     46 H14         1.1842   -1.5916    0.6635 H         1 <0>         0.1550
     47 H15         4.3225    1.5470   -4.5537 H         1 <0>         0.0616
     48 H16         5.1713    0.1559   -3.8376 H         1 <0>         0.0573
     49 H17         2.9361   -0.3966   -4.4736 H         1 <0>         0.3837
     50 H18         5.4717    3.0701   -4.4231 H         1 <0>         0.3815
     51 H19         6.9069    7.6830    1.4619 H         1 <0>         0.0674
     52 H20         6.3109    6.7622    2.8638 H         1 <0>         0.0617
     53 H21         8.5780    6.2205    2.3418 H         1 <0>         0.3838
     54 H22         3.7433    8.7740    0.7799 H         1 <0>         0.3880
     55 H23         1.3271    6.7003   -0.3402 H         1 <0>         0.3930
     56 H24         3.0968    5.5663   -3.0563 H         1 <0>         0.3857
     57 H25         7.3267    0.6939    0.4288 H         1 <0>         0.3922
@<TRIPOS>BOND
     1    1    6 ar
     2    1    2 ar
     3    1   43 1
     4    2    3 ar
     5    2   44 1
     6    3    4 ar
     7    3   10 1
     8    4    5 ar
     9    4   45 1
    10    5    6 ar
    11    5   46 1
    12    6    7 1
    13    7    8 2
    14    7    9 1
    15   10   11 1
    16   11   12 1
    17   11   21 1
    18   11   13 1
    19   13   14 1
    20   13   15 1
    21   13   42 1
    22   15   16 1
    23   15   17 1
    24   15   25 1
    25   17   18 1
    26   17   19 1
    27   17   24 1
    28   19   20 1
    29   19   21 1
    30   19   22 1
    31   22   23 1
    32   22   47 1
    33   22   48 1
    34   23   49 1
    35   24   50 1
    36   25   26 1
    37   26   27 1
    38   26   36 1
    39   26   28 1
    40   28   29 1
    41   28   30 1
    42   28   41 1
    43   30   31 1
    44   30   32 1
    45   30   40 1
    46   32   33 1
    47   32   34 1
    48   32   39 1
    49   34   35 1
    50   34   36 1
    51   34   37 1
    52   37   38 1
    53   37   51 1
    54   37   52 1
    55   38   53 1
    56   39   54 1
    57   40   55 1
    58   41   56 1
    59   42   57 1
@<TRIPOS>MOLECULE
ZINC44963940
   57    59     0     0     0
SMALL
USER_CHARGES

@<TRIPOS>ATOM
      1 C1         -0.0167    1.3784    0.0096 C.ar      1 <0>        -0.0190
      2 C2          1.1695    2.0865    0.0021 C.ar      1 <0>        -0.1485
      3 C3          2.3802    1.4093   -0.0131 C.ar      1 <0>         0.1815
      4 C4          2.3963    0.0221   -0.0207 C.ar      1 <0>        -0.1922
      5 C5          1.2074   -0.6814   -0.0132 C.ar      1 <0>        -0.0129
      6 C6          0.0021   -0.0041    0.0020 C.ar      1 <0>        -0.0895
      7 N1         -1.2702   -0.7602    0.0106 N.pl3     1 <0>         0.0404
      8 O1         -2.3247   -0.1690    0.0243 O.2       1 <0>        -0.1647
      9 O2         -1.2550   -1.9691    0.0040 O.3       1 <0>        -0.1653
     10 O3          3.5484    2.1036   -0.0210 O.3       1 <0>        -0.2796
     11 C7          4.7565    1.3405   -0.0366 C.3       1 <0>         0.2242
     12 H1          4.7409    0.6524   -0.8818 H         1 <0>         0.1119
     13 C8          5.9547    2.2842   -0.1688 C.3       1 <0>         0.0941
     14 H2          6.8739    1.7007   -0.2215 H         1 <0>         0.1280
     15 C9          6.0042    3.2080    1.0521 C.3       1 <0>         0.1193
     16 H3          6.8868    3.8448    0.9919 H         1 <0>         0.0821
     17 C10         6.0738    2.3544    2.3221 C.3       1 <0>         0.0501
     18 H4          6.0536    3.0026    3.1982 H         1 <0>         0.0801
     19 C11         4.8709    1.4081    2.3580 C.3       1 <0>         0.0597
     20 H5          3.9509    1.9910    2.4012 H         1 <0>         0.0897
     21 O4          4.8675    0.5989    1.1798 O.3       1 <0>        -0.3561
     22 C12         4.9647    0.5104    3.5934 C.3       1 <0>         0.0795
     23 O5          3.7858   -0.2914    3.6902 O.3       1 <0>        -0.5602
     24 O6          7.2826    1.5924    2.3196 O.3       1 <0>        -0.5436
     25 O7          4.8295    4.0211    1.0842 O.3       1 <0>        -0.5273
     26 O8          5.8173    3.0671   -1.3563 O.3       1 <0>        -0.3631
     27 C13         6.4055    2.4731   -2.5153 C.3       1 <0>         0.2049
     28 H6          5.9974    1.4725   -2.6578 H         1 <0>         0.1027
     29 C14         6.0926    3.3317   -3.7436 C.3       1 <0>         0.0682
     30 H7          5.0127    3.4325   -3.8520 H         1 <0>         0.0737
     31 C15         6.7204    4.7170   -3.5619 C.3       1 <0>         0.0840
     32 H8          6.2710    5.2108   -2.7002 H         1 <0>         0.0862
     33 C16         8.2264    4.5569   -3.3329 C.3       1 <0>         0.0933
     34 H9          8.6726    5.5340   -3.1476 H         1 <0>         0.0703
     35 C17         8.4569    3.6510   -2.1205 C.3       1 <0>         0.1066
     36 H10         8.0352    4.1195   -1.2313 H         1 <0>         0.0822
     37 O9          7.8215    2.3901   -2.3418 O.3       1 <0>        -0.3556
     38 C18         9.9588    3.4377   -1.9212 C.3       1 <0>         0.0876
     39 O10        10.1789    2.6894   -0.7238 O.3       1 <0>        -0.5666
     40 O11         8.8256    3.9700   -4.4899 O.3       1 <0>        -0.5330
     41 O12         6.4941    5.5019   -4.7344 O.3       1 <0>        -0.5536
     42 O13         6.6337    2.7102   -4.9111 O.3       1 <0>        -0.5177
     43 H11        -0.9594    1.9052    0.0260 H         1 <0>         0.1585
     44 H12         1.1543    3.1664    0.0077 H         1 <0>         0.1542
     45 H13         3.3375   -0.5074   -0.0330 H         1 <0>         0.1533
     46 H14         1.2194   -1.7613   -0.0191 H         1 <0>         0.1541
     47 H15         5.8379   -0.1363    3.5072 H         1 <0>         0.0595
     48 H16         5.0576    1.1291    4.4859 H         1 <0>         0.0650
     49 H17         3.7765   -0.8866    4.4523 H         1 <0>         0.3852
     50 H18         7.3929    1.0274    3.0966 H         1 <0>         0.3834
     51 H19         4.7942    4.6318    1.8331 H         1 <0>         0.3777
     52 H20        10.3640    2.8895   -2.7718 H         1 <0>         0.0678
     53 H21        10.4558    4.4045   -1.8419 H         1 <0>         0.0610
     54 H22        11.1111    2.5163   -0.5339 H         1 <0>         0.3828
     55 H23         8.7139    4.4902   -5.2974 H         1 <0>         0.3845
     56 H24         5.5596    5.6379   -4.9424 H         1 <0>         0.3856
     57 H25         6.2826    1.8261   -5.0846 H         1 <0>         0.3753
@<TRIPOS>BOND
     1    1    6 ar
     2    1    2 ar
     3    1   43 1
     4    2    3 ar
     5    2   44 1
     6    3    4 ar
     7    3   10 1
     8    4    5 ar
     9    4   45 1
    10    5    6 ar
    11    5   46 1
    12    6    7 1
    13    7    8 2
    14    7    9 1
    15   10   11 1
    16   11   12 1
    17   11   21 1
    18   11   13 1
    19   13   14 1
    20   13   15 1
    21   13   26 1
    22   15   16 1
    23   15   17 1
    24   15   25 1
    25   17   18 1
    26   17   19 1
    27   17   24 1
    28   19   20 1
    29   19   21 1
    30   19   22 1
    31   22   23 1
    32   22   47 1
    33   22   48 1
    34   23   49 1
    35   24   50 1
    36   25   51 1
    37   26   27 1
    38   27   28 1
    39   27   37 1
    40   27   29 1
    41   29   30 1
    42   29   31 1
    43   29   42 1
    44   31   32 1
    45   31   33 1
    46   31   41 1
    47   33   34 1
    48   33   35 1
    49   33   40 1
    50   35   36 1
    51   35   37 1
    52   35   38 1
    53   38   39 1
    54   38   52 1
    55   38   53 1
    56   39   54 1
    57   40   55 1
    58   41   56 1
    59   42   57 1
@<TRIPOS>MOLECULE
ZINC12432891
   60    62     0     0     0
SMALL
USER_CHARGES
(3R)-N-[(3,4-difluorophenyl)methyl]-1-(1-isopropyl-4-piperidyl)piperidine-3-carboxamide
@<TRIPOS>ATOM
      1 C1         -9.4216    4.2853    3.2962 C.3       1 <0>        -0.1890
      2 C2         -9.6076    3.5877    1.9473 C.3       1 <0>         0.0280
      3 C3         -9.8094    4.6383    0.8534 C.3       1 <0>        -0.1845
      4 C4         -8.5584    2.1002    0.3514 C.3       1 <0>         0.0004
      5 C5         -7.3671    1.1643    0.1346 C.3       1 <0>        -0.1722
      6 C6         -6.0719    1.9805    0.1593 C.3       1 <0>         0.0198
      7 C7         -5.9709    2.7227    1.4947 C.3       1 <0>        -0.1734
      8 C8         -7.2026    3.6135    1.6721 C.3       1 <0>        -0.0070
      9 C9         -5.0398    0.2721   -1.2107 C.3       1 <0>        -0.0114
     10 C10        -3.9039   -0.7523   -1.2586 C.3       1 <0>        -0.1440
     11 C11        -2.5601   -0.0185   -1.2384 C.3       1 <0>        -0.1342
     12 C12        -2.4820    0.8526    0.0185 C.3       1 <0>        -0.1317
     13 H1         -2.5270    0.2192    0.9043 H         1 <0>         0.1226
     14 C13        -3.6592    1.8305    0.0294 C.3       1 <0>         0.0109
     15 C14        -1.1873    1.6238    0.0165 C.2       1 <0>         0.5225
     16 O1         -1.2037    2.8365    0.0232 O.2       1 <0>        -0.5296
     17 N1         -0.0111    0.9658    0.0074 N.am      1 <0>        -0.7117
     18 C15         1.2475    1.7155   -0.0006 C.3       1 <0>         0.1632
     19 C16         2.4061    0.7519   -0.0169 C.ar      1 <0>        -0.1094
     20 C17         2.9255    0.3168   -1.2220 C.ar      1 <0>        -0.0788
     21 C18         3.9881   -0.5669   -1.2395 C.ar      1 <0>        -0.1243
     22 C19         4.5336   -1.0169   -0.0496 C.ar      1 <0>         0.0886
     23 C20         4.0129   -0.5802    1.1589 C.ar      1 <0>         0.0702
     24 C21         2.9519    0.3085    1.1730 C.ar      1 <0>        -0.1063
     25 F1          4.5440   -1.0177    2.3216 F         1 <0>        -0.1202
     26 F2          5.5719   -1.8811   -0.0658 F         1 <0>        -0.1175
     27 H2         -8.5480    4.9356    3.2515 H         1 <0>         0.0827
     28 H3        -10.3063    4.8803    3.5227 H         1 <0>         0.1130
     29 H4         -9.2778    3.5368    4.0755 H         1 <0>         0.0835
     30 H5        -10.4812    2.9374    1.9920 H         1 <0>         0.1430
     31 H6         -9.9420    4.1414   -0.1076 H         1 <0>         0.0810
     32 H7        -10.6942    5.2333    1.0799 H         1 <0>         0.1123
     33 H8         -8.9358    5.2887    0.8087 H         1 <0>         0.0809
     34 H9         -8.5910    2.8381   -0.4502 H         1 <0>         0.1440
     35 H10        -9.4812    1.5202    0.3486 H         1 <0>         0.1496
     36 H11        -7.4657    0.6673   -0.8305 H         1 <0>         0.1369
     37 H12        -7.3416    0.4171    0.9278 H         1 <0>         0.1118
     38 H13        -6.0794    2.7005   -0.6590 H         1 <0>         0.1565
     39 H14        -5.9237    2.0005    2.3098 H         1 <0>         0.1116
     40 H15        -5.0720    3.3392    1.5014 H         1 <0>         0.1376
     41 H16        -7.2416    4.3443    0.8643 H         1 <0>         0.1442
     42 H17        -7.1408    4.1325    2.6286 H         1 <0>         0.1526
     43 H18        -5.9978   -0.2477   -1.2105 H         1 <0>         0.1338
     44 H19        -4.9794    0.9222   -2.0835 H         1 <0>         0.1382
     45 H20        -3.9716   -1.4115   -0.3931 H         1 <0>         0.0937
     46 H21        -3.9836   -1.3416   -2.1720 H         1 <0>         0.1245
     47 H22        -2.4757    0.6114   -2.1240 H         1 <0>         0.0935
     48 H23        -1.7481   -0.7456   -1.2286 H         1 <0>         0.1045
     49 H24        -3.6145    2.4426    0.9302 H         1 <0>         0.1389
     50 H25        -3.6055    2.4733   -0.8493 H         1 <0>         0.1459
     51 H26         0.0021   -0.0041    0.0020 H         1 <0>         0.4074
     52 H27         1.2883    2.3477   -0.8877 H         1 <0>         0.0919
     53 H28         1.3053    2.3381    0.8922 H         1 <0>         0.0897
     54 H29         2.5004    0.6676   -2.1508 H         1 <0>         0.1435
     55 H30         4.3925   -0.9066   -2.1815 H         1 <0>         0.1545
     56 H31         2.5479    0.6524    2.1137 H         1 <0>         0.1482
     57 N2         -8.4133    2.7653    1.6639 N.4       1 <0>        -0.3973
     58 H32        -8.3221    2.0477    2.3926 H         1 <0>         0.4300
     59 N3         -4.9218    1.0615    0.0339 N.4       1 <0>        -0.3908
     60 H33        -4.9183    0.4204    0.8358 H         1 <0>         0.4274
@<TRIPOS>BOND
     1    1    2 1
     2    1   27 1
     3    1   28 1
     4    1   29 1
     5    2    3 1
     6    2   30 1
     7    2   57 1
     8    3   31 1
     9    3   32 1
    10    3   33 1
    11    4    5 1
    12    4   34 1
    13    4   35 1
    14    4   57 1
    15    5    6 1
    16    5   36 1
    17    5   37 1
    18    6    7 1
    19    6   38 1
    20    6   59 1
    21    7    8 1
    22    7   39 1
    23    7   40 1
    24    8   41 1
    25    8   42 1
    26    8   57 1
    27    9   10 1
    28    9   43 1
    29    9   44 1
    30    9   59 1
    31   10   11 1
    32   10   45 1
    33   10   46 1
    34   11   12 1
    35   11   47 1
    36   11   48 1
    37   12   13 1
    38   12   14 1
    39   12   15 1
    40   14   49 1
    41   14   50 1
    42   14   59 1
    43   15   16 2
    44   15   17 am
    45   17   18 1
    46   17   51 1
    47   18   19 1
    48   18   52 1
    49   18   53 1
    50   19   24 ar
    51   19   20 ar
    52   20   21 ar
    53   20   54 1
    54   21   22 ar
    55   21   55 1
    56   22   23 ar
    57   22   26 1
    58   23   24 ar
    59   23   25 1
    60   24   56 1
    61   57   58 1
    62   59   60 1
@<TRIPOS>MOLECULE
ZINC44932434
   62    65     0     0     0
SMALL
USER_CHARGES

@<TRIPOS>ATOM
      1 C1         -0.7266   -2.7109    2.7110 C.3       1 <0>        -0.1359
      2 C2         -0.3389   -2.1367    1.3728 C.ar      1 <0>        -0.0691
      3 C3         -0.2522   -2.9606    0.2659 C.ar      1 <0>        -0.1120
      4 C4          0.1034   -2.4339   -0.9615 C.ar      1 <0>        -0.0777
      5 C5          0.3719   -1.0831   -1.0825 C.ar      1 <0>        -0.1151
      6 C6          0.2843   -0.2592    0.0238 C.ar      1 <0>        -0.0858
      7 C7         -0.0755   -0.7853    1.2507 C.ar      1 <0>        -0.1638
      8 C8         -0.1762    0.1138    2.4559 C.3       1 <0>         0.0442
      9 N1         -1.5908    0.3521    2.7722 N.4       1 <0>        -0.3818
     10 C9         -2.2147    1.1068    1.6788 C.3       1 <0>        -0.0148
     11 C10        -3.7069    1.2877    1.9653 C.3       1 <0>        -0.1415
     12 C11        -3.8794    2.0540    3.2799 C.3       1 <0>        -0.1304
     13 C12        -3.1612    1.2953    4.3997 C.3       1 <0>        -0.1295
     14 H1         -3.6256    0.3183    4.5334 H         1 <0>         0.1190
     15 C13        -1.6892    1.1142    4.0229 C.3       1 <0>         0.0087
     16 C14        -3.2603    2.0795    5.6828 C.2       1 <0>         0.5258
     17 O1         -2.2525    2.4540    6.2440 O.2       1 <0>        -0.5168
     18 N2         -4.4689    2.3646    6.2066 N.am      1 <0>        -0.7223
     19 C15        -4.5653    3.1269    7.4539 C.3       1 <0>         0.1431
     20 C16        -6.0156    3.3086    7.8209 C.ar      1 <0>        -0.0951
     21 C17        -6.6564    4.4993    7.5381 C.ar      1 <0>        -0.0788
     22 C18        -7.9868    4.6668    7.8749 C.ar      1 <0>        -0.0741
     23 C19        -8.6801    3.6435    8.4952 C.ar      1 <0>        -0.0840
     24 C20        -8.0449    2.4507    8.7799 C.ar      1 <0>        -0.0828
     25 C21        -6.7104    2.2777    8.4381 C.ar      1 <0>         0.0739
     26 N3         -6.0642    1.0657    8.7212 N.pl3     1 <0>        -0.3577
     27 C22        -6.3491   -0.1576    8.1717 C.2       1 <0>         0.0275
     28 C23        -5.4935   -1.0406    8.7208 C.2       1 <0>         0.0055
     29 N4         -4.7058   -0.3802    9.5824 N.pl3     1 <0>        -0.4731
     30 C24        -5.0338    0.8831    9.5872 C.cat     1 <0>         0.3241
     31 C25        -4.3810    1.9584   10.4171 C.3       1 <0>        -0.1249
     32 H2         -1.7996   -2.5910    2.8608 H         1 <0>         0.0681
     33 H3         -0.4720   -3.7704    2.7393 H         1 <0>         0.0903
     34 H4         -0.1887   -2.1867    3.5009 H         1 <0>         0.0696
     35 H5         -0.4619   -4.0158    0.3604 H         1 <0>         0.1362
     36 H6          0.1718   -3.0776   -1.8259 H         1 <0>         0.1383
     37 H7          0.6504   -0.6716   -2.0414 H         1 <0>         0.1383
     38 H8          0.4944    0.7959   -0.0706 H         1 <0>         0.1334
     39 H9          0.3111   -0.3628    3.3065 H         1 <0>         0.1383
     40 H10         0.3134    1.0639    2.2422 H         1 <0>         0.1389
     41 H11        -1.7401    2.0845    1.5955 H         1 <0>         0.1331
     42 H12        -2.0883    0.5617    0.7433 H         1 <0>         0.1369
     43 H13        -4.1680    1.8497    1.1532 H         1 <0>         0.1218
     44 H14        -4.1826    0.3105    2.0485 H         1 <0>         0.0902
     45 H15        -3.4488    3.0503    3.1802 H         1 <0>         0.0933
     46 H16        -4.9401    2.1362    3.5174 H         1 <0>         0.0974
     47 H17        -1.1749    0.5745    4.8181 H         1 <0>         0.1375
     48 H18        -1.2258    2.0917    3.8897 H         1 <0>         0.1416
     49 H19        -5.2750    2.0651    5.7577 H         1 <0>         0.4064
     50 H20        -4.0539    2.5865    8.2505 H         1 <0>         0.0802
     51 H21        -4.0994    4.1032    7.3200 H         1 <0>         0.1019
     52 H22        -6.1176    5.3002    7.0538 H         1 <0>         0.1496
     53 H23        -8.4856    5.5989    7.6535 H         1 <0>         0.1511
     54 H24        -9.7192    3.7774    8.7574 H         1 <0>         0.1532
     55 H25        -8.5868    1.6519    9.2643 H         1 <0>         0.1445
     56 H26        -7.1133   -0.3719    7.4393 H         1 <0>         0.2237
     57 H27        -5.4495   -2.0979    8.5050 H         1 <0>         0.2274
     58 H28        -4.8931    2.0385   11.3760 H         1 <0>         0.1300
     59 H29        -3.3345    1.7032   10.5843 H         1 <0>         0.1229
     60 H30        -4.4431    2.9111    9.8913 H         1 <0>         0.1174
     61 H31        -2.0638   -0.5325    2.8805 H         1 <0>         0.4172
     62 H32        -4.0000   -0.7784   10.1155 H         1 <0>         0.4662
@<TRIPOS>BOND
     1    1    2 1
     2    1   32 1
     3    1   33 1
     4    1   34 1
     5    2    7 ar
     6    2    3 ar
     7    3    4 ar
     8    3   35 1
     9    4    5 ar
    10    4   36 1
    11    5    6 ar
    12    5   37 1
    13    6    7 ar
    14    6   38 1
    15    7    8 1
    16    8    9 1
    17    8   39 1
    18    8   40 1
    19    9   15 1
    20    9   10 1
    21    9   61 1
    22   10   11 1
    23   10   41 1
    24   10   42 1
    25   11   12 1
    26   11   43 1
    27   11   44 1
    28   12   13 1
    29   12   45 1
    30   12   46 1
    31   13   14 1
    32   13   15 1
    33   13   16 1
    34   15   47 1
    35   15   48 1
    36   16   17 2
    37   16   18 am
    38   18   19 1
    39   18   49 1
    40   19   20 1
    41   19   50 1
    42   19   51 1
    43   20   25 ar
    44   20   21 ar
    45   21   22 ar
    46   21   52 1
    47   22   23 ar
    48   22   53 1
    49   23   24 ar
    50   23   54 1
    51   24   25 ar
    52   24   55 1
    53   25   26 1
    54   26   30 1
    55   26   27 1
    56   27   28 2
    57   27   56 1
    58   28   29 1
    59   28   57 1
    60   29   30 2
    61   29   62 1
    62   30   31 1
    63   31   58 1
    64   31   59 1
    65   31   60 1
@<TRIPOS>MOLECULE
ZINC63233024
   48    50     0     0     0
SMALL
USER_CHARGES

@<TRIPOS>ATOM
      1 C1          0.0479    1.4891    0.0167 C.3       1 <0>        -0.1653
      2 C2          0.0604   -0.0408    0.0032 C.3       1 <0>         0.0250
      3 O1         -1.2829   -0.5283    0.0185 O.3       1 <0>        -0.2383
      4 C3         -1.4496   -1.8741    0.0092 C.ar      1 <0>         0.2999
      5 C4         -0.2730   -2.7336   -0.0095 C.ar      1 <0>        -0.0338
      6 C5         -0.3729   -4.0759   -0.0198 C.ar      1 <0>        -0.0967
      7 C6         -1.6999   -4.7098   -0.0119 C.ar      1 <0>         0.3212
      8 N1         -2.0748   -5.9566   -0.0194 N.pl3     1 <0>        -0.4540
      9 C7         -3.5423   -5.9774   -0.0053 C.3       1 <0>         0.2161
     10 H1         -3.9006   -6.4907    0.8870 H         1 <0>         0.2624
     11 N2         -3.9765   -4.5753    0.0114 N.pl3     1 <0>        -0.5086
     12 C8         -2.9022   -3.8336    0.0076 C.ar      1 <0>         0.3105
     13 C9         -2.7060   -2.3825    0.0230 C.ar      1 <0>        -0.2288
     14 S1         -4.1675   -6.8064   -1.4928 S.3       1 <0>         0.1027
     15 C10        -3.4822   -5.8305   -2.8598 C.3       1 <0>        -0.1974
     16 C11        -3.9309   -6.4200   -4.1722 C.2       1 <0>         0.5278
     17 O2         -4.6429   -7.4019   -4.1841 O.2       1 <0>        -0.4867
     18 N3         -3.5410   -5.8562   -5.3326 N.am      1 <0>        -0.6424
     19 C12        -3.8604   -6.4681   -6.5498 C.ar      1 <0>         0.1085
     20 C13        -4.0956   -7.8360   -6.6004 C.ar      1 <0>        -0.1150
     21 C14        -4.4105   -8.4369   -7.8032 C.ar      1 <0>        -0.1051
     22 C15        -4.4913   -7.6781   -8.9567 C.ar      1 <0>        -0.0730
     23 C16        -4.2573   -6.3163   -8.9097 C.ar      1 <0>        -0.1004
     24 C17        -3.9483   -5.7081   -7.7085 C.ar      1 <0>        -0.0977
     25 C18        -3.7005   -4.2226   -7.6569 C.3       1 <0>        -0.1175
     26 C19        -4.8347   -8.3372  -10.2677 C.3       1 <0>        -0.1239
     27 H2          1.0725    1.8609    0.0051 H         1 <0>         0.1062
     28 H3         -0.4817    1.8559   -0.8625 H         1 <0>         0.0813
     29 H4         -0.4559    1.8404    0.9172 H         1 <0>         0.0818
     30 H5          0.5641   -0.3921   -0.8973 H         1 <0>         0.0987
     31 H6          0.5900   -0.4077    0.8824 H         1 <0>         0.0992
     32 H7          0.7074   -2.2805   -0.0155 H         1 <0>         0.2084
     33 H8          0.5185   -4.6854   -0.0343 H         1 <0>         0.2149
     34 H9         -3.5588   -1.7201    0.0412 H         1 <0>         0.2079
     35 H10        -3.8346   -4.8018   -2.7842 H         1 <0>         0.1335
     36 H11        -2.3936   -5.8465   -2.8076 H         1 <0>         0.1306
     37 H12        -3.0390   -5.0262   -5.3239 H         1 <0>         0.4127
     38 H13        -4.0320   -8.4292   -5.7001 H         1 <0>         0.1410
     39 H14        -4.5935   -9.5005   -7.8432 H         1 <0>         0.1324
     40 H15        -4.3208   -5.7266   -9.8123 H         1 <0>         0.1344
     41 H16        -2.6419   -4.0247   -7.8254 H         1 <0>         0.0753
     42 H17        -4.2899   -3.7288   -8.4295 H         1 <0>         0.0809
     43 H18        -3.9904   -3.8396   -6.6784 H         1 <0>         0.0557
     44 H19        -5.9160   -8.3310  -10.4052 H         1 <0>         0.0781
     45 H20        -4.3615   -7.7912  -11.0838 H         1 <0>         0.0727
     46 H21        -4.4750   -9.3661  -10.2623 H         1 <0>         0.0726
     47 H22        -1.4905   -6.7309   -0.0323 H         1 <0>         0.4968
     48 H23        -4.8932   -4.2581    0.0235 H         1 <0>         0.4956
@<TRIPOS>BOND
     1    1    2 1
     2    1   27 1
     3    1   28 1
     4    1   29 1
     5    2    3 1
     6    2   30 1
     7    2   31 1
     8    3    4 1
     9    4   13 ar
    10    4    5 ar
    11    5    6 ar
    12    5   32 1
    13    6    7 ar
    14    6   33 1
    15    7   12 ar
    16    7    8 2
    17    8    9 1
    18    8   47 1
    19    9   10 1
    20    9   11 1
    21    9   14 1
    22   11   12 2
    23   11   48 1
    24   12   13 ar
    25   13   34 1
    26   14   15 1
    27   15   16 1
    28   15   35 1
    29   15   36 1
    30   16   17 2
    31   16   18 am
    32   18   19 1
    33   18   37 1
    34   19   24 ar
    35   19   20 ar
    36   20   21 ar
    37   20   38 1
    38   21   22 ar
    39   21   39 1
    40   22   23 ar
    41   22   26 1
    42   23   24 ar
    43   23   40 1
    44   24   25 1
    45   25   41 1
    46   25   42 1
    47   25   43 1
    48   26   44 1
    49   26   45 1
    50   26   46 1
@<TRIPOS>MOLECULE
ZINC63819102
   56    59     0     0     0
SMALL
USER_CHARGES

@<TRIPOS>ATOM
      1 C1         -0.0167    1.3779    0.0096 C.ar      1 <0>        -0.0824
      2 C2          1.1711    2.0854    0.0021 C.ar      1 <0>        -0.0987
      3 C3          2.3773    1.4107   -0.0130 C.ar      1 <0>        -0.0878
      4 C4          2.3960    0.0283   -0.0201 C.ar      1 <0>        -0.1439
      5 C5          1.2086   -0.6790   -0.0117 C.ar      1 <0>        -0.0986
      6 C6          0.0021   -0.0041    0.0020 C.ar      1 <0>        -0.0902
      7 C7          1.2291   -2.1858   -0.0204 C.3       1 <0>         0.1575
      8 N1          1.4898   -2.6785    1.3344 N.am      1 <0>        -0.7310
      9 C8          1.5530   -4.0042    1.5688 C.2       1 <0>         0.5148
     10 O1          1.3941   -4.7893    0.6581 O.2       1 <0>        -0.5212
     11 C9          1.8212   -4.5111    2.9624 C.3       1 <0>        -0.1397
     12 C10         1.8420   -6.0409    2.9536 C.3       1 <0>        -0.0756
     13 C11         2.1101   -6.5477    4.3472 C.2       1 <0>         0.0577
     14 C12         1.1922   -6.9306    5.2639 C.ar      1 <0>        -0.1633
     15 C13        -0.2743   -6.9864    5.2393 C.ar      1 <0>        -0.0187
     16 C14        -0.9326   -7.4242    6.3366 C.ar      1 <0>        -0.1453
     17 C15        -0.2511   -7.8245    7.4942 C.ar      1 <0>         0.0571
     18 C16         1.0950   -7.8014    7.5926 C.ar      1 <0>        -0.2097
     19 C17         1.8882   -7.3593    6.4982 C.ar      1 <0>         0.3289
     20 N2          3.1859   -7.2459    6.3502 N.pl3     1 <0>        -0.5860
     21 C18         3.4603   -6.7375    5.0016 C.3       1 <0>         0.0620
     22 C19         3.7112   -0.7073   -0.0376 C.3       1 <0>         0.0453
     23 N3          4.0068   -1.1495   -1.4069 N.4       1 <0>        -0.3958
     24 C20         4.2973    0.0224   -2.2720 C.3       1 <0>        -0.0053
     25 C21         5.1080   -0.5919   -3.4407 C.3       1 <0>        -0.1460
     26 C22         5.9725   -1.6627   -2.7365 C.3       1 <0>        -0.1450
     27 C23         5.2332   -1.9760   -1.4224 C.3       1 <0>        -0.0095
     28 H1         -0.9591    1.9051    0.0259 H         1 <0>         0.1416
     29 H2          1.1565    3.1653    0.0076 H         1 <0>         0.1415
     30 H3          3.3051    1.9634   -0.0196 H         1 <0>         0.1360
     31 H4         -0.9258   -0.5567    0.0079 H         1 <0>         0.1387
     32 H5          0.2648   -2.5603   -0.3639 H         1 <0>         0.0960
     33 H6          2.0142   -2.5347   -0.6912 H         1 <0>         0.0589
     34 H7          1.6168   -2.0506    2.0628 H         1 <0>         0.4087
     35 H8          2.7855   -4.1366    3.3060 H         1 <0>         0.1059
     36 H9          1.0361   -4.1622    3.6333 H         1 <0>         0.1101
     37 H10         0.8776   -6.4154    2.6101 H         1 <0>         0.1177
     38 H11         2.6271   -6.3897    2.2828 H         1 <0>         0.1180
     39 H12        -0.8196   -6.6821    4.3581 H         1 <0>         0.1603
     40 H13        -2.0117   -7.4661    6.3207 H         1 <0>         0.1597
     41 H14        -0.8266   -8.1650    8.3423 H         1 <0>         0.1635
     42 H15         1.5721   -8.1202    8.5076 H         1 <0>         0.1625
     43 H16         4.0524   -7.4593    4.4390 H         1 <0>         0.1737
     44 H17         3.9861   -5.7846    5.0614 H         1 <0>         0.1695
     45 H18         4.5034   -0.0437    0.3089 H         1 <0>         0.1388
     46 H19         3.6509   -1.5751    0.6193 H         1 <0>         0.1285
     47 H20         3.3728    0.4690   -2.6380 H         1 <0>         0.1346
     48 H21         4.8949    0.7587   -1.7345 H         1 <0>         0.1346
     49 H22         4.4429   -1.0525   -4.1713 H         1 <0>         0.0989
     50 H23         5.7373    0.1628   -3.9124 H         1 <0>         0.1197
     51 H24         6.0426   -2.5583   -3.3538 H         1 <0>         0.1066
     52 H25         6.9666   -1.2682   -2.5265 H         1 <0>         0.1060
     53 H26         5.8642   -1.7201   -0.5713 H         1 <0>         0.1307
     54 H27         4.9691   -3.0329   -1.3878 H         1 <0>         0.1297
     55 H28         3.8532   -7.4652    7.0192 H         1 <0>         0.4571
     56 H29         3.2292   -1.6737   -1.7792 H         1 <0>         0.4223
@<TRIPOS>BOND
     1    1    6 ar
     2    1    2 ar
     3    1   28 1
     4    2    3 ar
     5    2   29 1
     6    3    4 ar
     7    3   30 1
     8    4    5 ar
     9    4   22 1
    10    5    6 ar
    11    5    7 1
    12    6   31 1
    13    7    8 1
    14    7   32 1
    15    7   33 1
    16    8    9 am
    17    8   34 1
    18    9   10 2
    19    9   11 1
    20   11   12 1
    21   11   35 1
    22   11   36 1
    23   12   13 1
    24   12   37 1
    25   12   38 1
    26   13   21 1
    27   13   14 2
    28   14   19 ar
    29   14   15 ar
    30   15   16 ar
    31   15   39 1
    32   16   17 ar
    33   16   40 1
    34   17   18 ar
    35   17   41 1
    36   18   19 ar
    37   18   42 1
    38   19   20 2
    39   20   21 1
    40   20   55 1
    41   21   43 1
    42   21   44 1
    43   22   23 1
    44   22   45 1
    45   22   46 1
    46   23   27 1
    47   23   24 1
    48   23   56 1
    49   24   25 1
    50   24   47 1
    51   24   48 1
    52   25   26 1
    53   25   49 1
    54   25   50 1
    55   26   27 1
    56   26   51 1
    57   26   52 1
    58   27   53 1
    59   27   54 1
@<TRIPOS>MOLECULE
ZINC66972864
   66    69     0     0     0
SMALL
USER_CHARGES

@<TRIPOS>ATOM
      1 C1         -0.0187    1.5258    0.0104 C.3       1 <0>        -0.1925
      2 C2          0.0021   -0.0041    0.0020 C.3       1 <0>         0.0209
      3 H1         -1.0207   -0.3809    0.0098 H         1 <0>         0.1458
      4 C3          0.7171   -0.4969   -1.2579 C.3       1 <0>        -0.1403
      5 C4          0.7351   -2.0282   -1.2620 C.3       1 <0>        -0.1418
      6 C5          1.4100   -2.5244    0.0200 C.3       1 <0>        -0.1454
      7 C6          0.6693   -1.9564    1.2325 C.3       1 <0>        -0.0113
      8 N1          0.7108   -0.4897    1.1921 N.4       1 <0>        -0.3819
      9 C7          0.0674    0.0497    2.3975 C.3       1 <0>         0.0284
     10 C8          0.8652   -0.3469    3.6130 C.ar      1 <0>        -0.1377
     11 C9          0.4583   -1.4170    4.3880 C.ar      1 <0>        -0.0811
     12 C10         1.1900   -1.7808    5.5027 C.ar      1 <0>        -0.0744
     13 C11         2.3291   -1.0747    5.8426 C.ar      1 <0>        -0.0771
     14 C12         2.7363   -0.0054    5.0673 C.ar      1 <0>        -0.0749
     15 C13         2.0068    0.3558    3.9498 C.ar      1 <0>        -0.1483
     16 C14         2.4538    1.5184    3.1015 C.3       1 <0>         0.0344
     17 N2          1.6641    2.7082    3.4461 N.4       1 <0>        -0.5139
     18 C15         2.0998    3.8415    2.6192 C.3       1 <0>         0.0492
     19 C16         1.2897    5.0620    2.9727 C.ar      1 <0>        -0.1816
     20 C17         0.2238    5.4382    2.1788 C.ar      1 <0>        -0.0841
     21 C18        -0.5197    6.5581    2.5022 C.ar      1 <0>        -0.1140
     22 C19        -0.1995    7.3052    3.6212 C.ar      1 <0>        -0.0671
     23 C20         0.8645    6.9346    4.4194 C.ar      1 <0>        -0.1184
     24 C21         1.6104    5.8067    4.1004 C.ar      1 <0>         0.1979
     25 N3          2.6841    5.4259    4.9085 N.pl3     1 <0>        -0.6931
     26 C22         4.0402    5.9392    4.6579 C.3       1 <0>         0.1052
     27 C23         4.5994    6.4907    5.9744 C.3       1 <0>         0.0399
     28 O1          4.4756    5.4945    6.9924 O.3       1 <0>        -0.3717
     29 C24         3.1270    5.1216    7.2854 C.3       1 <0>         0.0436
     30 C25         2.4914    4.5044    6.0395 C.3       1 <0>         0.0944
     31 H2          1.0039    1.9031    0.0027 H         1 <0>         0.0764
     32 H3         -0.5459    1.8868   -0.8726 H         1 <0>         0.1202
     33 H4         -0.5289    1.8773    0.9072 H         1 <0>         0.0759
     34 H5          0.1888   -0.1368   -2.1407 H         1 <0>         0.1183
     35 H6          1.7401   -0.1209   -1.2665 H         1 <0>         0.0876
     36 H7         -0.2870   -2.4047   -1.3051 H         1 <0>         0.0863
     37 H8          1.2925   -2.3839   -2.1285 H         1 <0>         0.1008
     38 H9          1.3770   -3.6135    0.0506 H         1 <0>         0.1186
     39 H10         2.4474   -2.1904    0.0379 H         1 <0>         0.0871
     40 H11        -0.3678   -2.2912    1.2138 H         1 <0>         0.1351
     41 H12         1.1471   -2.3079    2.1470 H         1 <0>         0.1317
     42 H13         0.0236    1.1368    2.3305 H         1 <0>         0.1138
     43 H14        -0.9432   -0.3502    2.4799 H         1 <0>         0.1556
     44 H15        -0.4314   -1.9686    4.1225 H         1 <0>         0.1472
     45 H16         0.8718   -2.6163    6.1085 H         1 <0>         0.1518
     46 H17         2.9004   -1.3584    6.7140 H         1 <0>         0.1521
     47 H18         3.6259    0.5464    5.3330 H         1 <0>         0.1477
     48 H19         3.5096    1.7174    3.2851 H         1 <0>         0.1584
     49 H20         2.3072    1.2775    2.0486 H         1 <0>         0.1144
     50 H21         0.6867    2.5239    3.2761 H         1 <0>         0.4151
     51 H22         3.1556    4.0405    2.8028 H         1 <0>         0.1439
     52 H23         1.9532    3.6005    1.5663 H         1 <0>         0.1343
     53 H24        -0.0289    4.8570    1.3043 H         1 <0>         0.1308
     54 H25        -1.3522    6.8505    1.8793 H         1 <0>         0.1403
     55 H26        -0.7821    8.1797    3.8707 H         1 <0>         0.1413
     56 H27         1.1143    7.5186    5.2929 H         1 <0>         0.1369
     57 H28         4.6777    5.1317    4.2980 H         1 <0>         0.0643
     58 H29         3.9999    6.7350    3.9142 H         1 <0>         0.0887
     59 H30         5.6502    6.7491    5.8438 H         1 <0>         0.1100
     60 H31         4.0385    7.3792    6.2644 H         1 <0>         0.0607
     61 H32         3.1185    4.3950    8.0979 H         1 <0>         0.1073
     62 H33         2.5607    6.0051    7.5801 H         1 <0>         0.0627
     63 H34         1.4259    4.3505    6.2102 H         1 <0>         0.0823
     64 H35         2.9703    3.5499    5.8210 H         1 <0>         0.0510
     65 H36         1.6711   -0.1818    1.1594 H         1 <0>         0.4107
     66 H37         1.7998    2.9312    4.4207 H         1 <0>         0.4315
@<TRIPOS>BOND
     1    1    2 1
     2    1   31 1
     3    1   32 1
     4    1   33 1
     5    2    3 1
     6    2    8 1
     7    2    4 1
     8    4    5 1
     9    4   34 1
    10    4   35 1
    11    5    6 1
    12    5   36 1
    13    5   37 1
    14    6    7 1
    15    6   38 1
    16    6   39 1
    17    7    8 1
    18    7   40 1
    19    7   41 1
    20    8    9 1
    21    8   65 1
    22    9   10 1
    23    9   42 1
    24    9   43 1
    25   10   15 ar
    26   10   11 ar
    27   11   12 ar
    28   11   44 1
    29   12   13 ar
    30   12   45 1
    31   13   14 ar
    32   13   46 1
    33   14   15 ar
    34   14   47 1
    35   15   16 1
    36   16   17 1
    37   16   48 1
    38   16   49 1
    39   17   18 1
    40   17   50 1
    41   17   66 1
    42   18   19 1
    43   18   51 1
    44   18   52 1
    45   19   24 ar
    46   19   20 ar
    47   20   21 ar
    48   20   53 1
    49   21   22 ar
    50   21   54 1
    51   22   23 ar
    52   22   55 1
    53   23   24 ar
    54   23   56 1
    55   24   25 1
    56   25   30 1
    57   25   26 1
    58   26   27 1
    59   26   57 1
    60   26   58 1
    61   27   28 1
    62   27   59 1
    63   27   60 1
    64   28   29 1
    65   29   30 1
    66   29   61 1
    67   29   62 1
    68   30   63 1
    69   30   64 1
@<TRIPOS>MOLECULE
ZINC40922651
   41    42     0     0     0
SMALL
USER_CHARGES

@<TRIPOS>ATOM
      1 C1         -0.0187    1.5258    0.0104 C.3       1 <0>        -0.1782
      2 C2          0.0021   -0.0041    0.0020 C.3       1 <0>         0.0502
      3 C3          0.7421   -0.5109    1.2415 C.3       1 <0>        -0.1715
      4 C4         -1.4117   -0.5257    0.0127 C.2       1 <0>         0.5040
      5 O1         -1.9390   -0.8271    1.0625 O.2       1 <0>        -0.4591
      6 N1         -2.0902   -0.6573   -1.1443 N.am      1 <0>        -0.7348
      7 C5         -3.4646   -1.1643   -1.1339 C.3       1 <0>         0.1252
      8 C6         -4.0003   -1.2152   -2.5662 C.3       1 <0>        -0.1278
      9 H1         -3.9012   -0.2427   -3.0483 H         1 <0>         0.1167
     10 C7         -3.2736   -2.3077   -3.3836 C.3       1 <0>        -0.1463
     11 C8         -4.3698   -2.9613   -4.2454 C.3       1 <0>        -0.0028
     12 N2         -5.6340   -2.2527   -3.9499 N.4       1 <0>        -0.3654
     13 C9         -5.4758   -1.6877   -2.5832 C.3       1 <0>         0.0054
     14 C10        -6.7616   -3.1936   -3.9829 C.3       1 <0>        -0.0846
     15 C11        -7.7907   -3.0240   -5.1024 C.3       1 <0>        -0.1506
     16 C12        -8.1526   -2.6406   -3.6661 C.3       1 <0>        -0.1528
     17 N3          0.6897   -0.4778   -1.2066 N.4       1 <0>        -0.6341
     18 H2          1.0039    1.9031    0.0027 H         1 <0>         0.1055
     19 H3         -0.5459    1.8868   -0.8726 H         1 <0>         0.0866
     20 H4         -0.5289    1.8773    0.9072 H         1 <0>         0.1180
     21 H5          0.2319   -0.1594    2.1383 H         1 <0>         0.1212
     22 H6          0.7568   -1.6008    1.2356 H         1 <0>         0.0892
     23 H7          1.7647   -0.1336    1.2338 H         1 <0>         0.1003
     24 H8         -1.6686   -0.4162   -1.9840 H         1 <0>         0.3946
     25 H9         -3.4790   -2.1662   -0.7048 H         1 <0>         0.0936
     26 H10        -4.0912   -0.5035   -0.5349 H         1 <0>         0.0960
     27 H11        -2.5098   -1.8595   -4.0191 H         1 <0>         0.1050
     28 H12        -2.8270   -3.0451   -2.7165 H         1 <0>         0.1073
     29 H13        -4.1234   -2.8562   -5.3020 H         1 <0>         0.1363
     30 H14        -4.4659   -4.0158   -3.9869 H         1 <0>         0.1354
     31 H15        -5.6422   -2.4568   -1.8290 H         1 <0>         0.1418
     32 H16        -6.1512   -0.8457   -2.4312 H         1 <0>         0.1425
     33 H17        -6.5368   -4.2085   -3.6551 H         1 <0>         0.1771
     34 H18        -7.6309   -2.2142   -5.8144 H         1 <0>         0.1211
     35 H19        -8.2430   -3.9274   -5.5114 H         1 <0>         0.1367
     36 H20        -8.8430   -3.2919   -3.1301 H         1 <0>         0.1363
     37 H21        -8.2309   -1.5787   -3.4331 H         1 <0>         0.1193
     38 H22         1.6363   -0.1286   -1.2138 H         1 <0>         0.4490
     39 H23         0.7033   -1.4867   -1.2121 H         1 <0>         0.4397
     40 H24        -5.7799   -1.5091   -4.6161 H         1 <0>         0.4262
     41 H25         0.2017   -0.1436   -2.0240 H         1 <0>         0.4274
@<TRIPOS>BOND
     1    1    2 1
     2    1   18 1
     3    1   19 1
     4    1   20 1
     5    2    3 1
     6    2    4 1
     7    2   17 1
     8    3   21 1
     9    3   22 1
    10    3   23 1
    11    4    5 2
    12    4    6 am
    13    6    7 1
    14    6   24 1
    15    7    8 1
    16    7   25 1
    17    7   26 1
    18    8    9 1
    19    8   13 1
    20    8   10 1
    21   10   11 1
    22   10   27 1
    23   10   28 1
    24   11   12 1
    25   11   29 1
    26   11   30 1
    27   12   13 1
    28   12   14 1
    29   12   40 1
    30   13   31 1
    31   13   32 1
    32   14   16 1
    33   14   15 1
    34   14   33 1
    35   15   16 1
    36   15   34 1
    37   15   35 1
    38   16   36 1
    39   16   37 1
    40   17   38 1
    41   17   39 1
    42   17   41 1
@<TRIPOS>MOLECULE
ZINC44529185
   36    36     0     0     0
SMALL
USER_CHARGES

@<TRIPOS>ATOM
      1 C1          0.0180   -1.1779   -0.0044 C.1       1 <0>        -0.1121
      2 C2          0.0021   -0.0041    0.0020 C.1       1 <0>        -0.2565
      3 C3         -0.0179    1.4678    0.0101 C.3       1 <0>         0.2368
      4 N1          1.3565    1.9749   -0.0003 N.am      1 <0>        -0.6953
      5 C4          1.5848    3.3031    0.0047 C.2       1 <0>         0.5006
      6 O1          0.6524    4.0786    0.0177 O.2       1 <0>        -0.5264
      7 C5          2.9986    3.8248   -0.0060 C.3       1 <0>        -0.0311
      8 N2          2.9787    5.2936    0.0020 N.4       1 <0>        -0.3680
      9 C6          2.3909    5.7666    1.2611 C.3       1 <0>        -0.0262
     10 C7          2.2932    7.2935    1.2410 C.3       1 <0>        -0.1401
     11 C8          3.6952    7.8871    1.0756 C.3       1 <0>        -0.1524
     12 C9          4.3276    7.3290   -0.2026 C.3       1 <0>        -0.1421
     13 H1          3.7412    7.6433   -1.0660 H         1 <0>         0.1205
     14 C10         4.3498    5.8008   -0.1290 C.3       1 <0>        -0.0010
     15 C11         5.7577    7.8558   -0.3372 C.3       1 <0>         0.0009
     16 N3          5.7274    9.3127   -0.5231 N.4       1 <0>        -0.6383
     17 H2          0.0322   -2.2278   -0.0102 H         1 <0>         0.2292
     18 H3         -0.5451    1.8289   -0.8729 H         1 <0>         0.1046
     19 H4         -0.5281    1.8193    0.9069 H         1 <0>         0.1045
     20 H5          2.1022    1.3546   -0.0107 H         1 <0>         0.4158
     21 H6          3.5258    3.4637    0.8770 H         1 <0>         0.1644
     22 H7          3.5088    3.4732   -0.9028 H         1 <0>         0.1653
     23 H8          1.3944    5.3407    1.3789 H         1 <0>         0.1575
     24 H9          3.0195    5.4541    2.0950 H         1 <0>         0.1318
     25 H10         1.6646    7.6071    0.4076 H         1 <0>         0.0959
     26 H11         1.8582    7.6428    2.1774 H         1 <0>         0.1249
     27 H12         3.6254    8.9724    1.0039 H         1 <0>         0.0930
     28 H13         4.3094    7.6161    1.9344 H         1 <0>         0.1002
     29 H14         4.9367    5.4876    0.7345 H         1 <0>         0.1435
     30 H15         4.7997    5.4002   -1.0375 H         1 <0>         0.1441
     31 H16         6.3196    7.6164    0.5656 H         1 <0>         0.1468
     32 H17         6.2372    7.3896   -1.1979 H         1 <0>         0.1476
     33 H18         6.6706    9.6601   -0.6118 H         1 <0>         0.4508
     34 H19         5.2073    9.5344   -1.3588 H         1 <0>         0.4403
     35 H20         5.2836    9.7443    0.2737 H         1 <0>         0.4376
     36 H21         2.4229    5.6257   -0.7719 H         1 <0>         0.4327
@<TRIPOS>BOND
     1    1    2 3
     2    1   17 1
     3    2    3 1
     4    3    4 1
     5    3   18 1
     6    3   19 1
     7    4    5 am
     8    4   20 1
     9    5    6 2
    10    5    7 1
    11    7    8 1
    12    7   21 1
    13    7   22 1
    14    8   14 1
    15    8    9 1
    16    8   36 1
    17    9   10 1
    18    9   23 1
    19    9   24 1
    20   10   11 1
    21   10   25 1
    22   10   26 1
    23   11   12 1
    24   11   27 1
    25   11   28 1
    26   12   13 1
    27   12   14 1
    28   12   15 1
    29   14   29 1
    30   14   30 1
    31   15   16 1
    32   15   31 1
    33   15   32 1
    34   16   33 1
    35   16   34 1
    36   16   35 1
@<TRIPOS>MOLECULE
ZINC50287350
   36    37     0     0     0
SMALL
USER_CHARGES

@<TRIPOS>ATOM
      1 C1          0.1045   -0.1873    1.7263 C.3       1 <0>        -0.0493
      2 N1         -0.2334   -0.0629    0.3022 N.4       1 <0>        -0.5198
      3 C2         -1.5897   -0.5790    0.0738 C.3       1 <0>         0.0793
      4 H1         -2.2880   -0.0729    0.7404 H         1 <0>         0.1652
      5 C3         -1.9949   -0.3228   -1.3792 C.3       1 <0>        -0.0281
      6 N2         -1.9032    1.1148   -1.6669 N.4       1 <0>        -0.6513
      7 C4         -1.6165   -2.0604    0.3491 C.ar      1 <0>        -0.2481
      8 C5         -0.5572   -2.8578   -0.0443 C.ar      1 <0>        -0.0626
      9 C6         -0.5787   -4.2131    0.2055 C.ar      1 <0>        -0.1710
     10 C7         -1.6697   -4.7918    0.8580 C.ar      1 <0>         0.2480
     11 C8         -2.7258   -3.9837    1.2484 C.ar      1 <0>        -0.1608
     12 C9         -2.6972   -2.6247    1.0004 C.ar      1 <0>        -0.0133
     13 C10        -3.7663   -4.8465    1.9265 C.3       1 <0>        -0.0912
     14 C11        -3.1791   -6.2667    1.8811 C.3       1 <0>         0.1019
     15 N3         -1.8872   -6.1264    1.2039 N.pl3     1 <0>        -0.6043
     16 C12        -0.9597   -7.2266    0.9292 C.3       1 <0>         0.0910
     17 H2          1.0690    0.2848    1.9135 H         1 <0>         0.1378
     18 H3         -0.6625    0.3029    2.3259 H         1 <0>         0.1317
     19 H4          0.1578   -1.2420    1.9963 H         1 <0>         0.1368
     20 H5         -0.1928    0.9080    0.0305 H         1 <0>         0.4119
     21 H6         -1.3270   -0.8699   -2.0445 H         1 <0>         0.1608
     22 H7         -3.0196   -0.6600   -1.5354 H         1 <0>         0.1817
     23 H8         -0.9382    1.4061   -1.6208 H         1 <0>         0.4261
     24 H9         -2.2656    1.2966   -2.5909 H         1 <0>         0.4616
     25 H10         0.2896   -2.4171   -0.5493 H         1 <0>         0.1186
     26 H11         0.2514   -4.8303   -0.1050 H         1 <0>         0.1350
     27 H12        -3.5232   -2.0026    1.3122 H         1 <0>         0.1334
     28 H13        -3.9109   -4.5275    2.9587 H         1 <0>         0.0977
     29 H14        -4.7083   -4.8068    1.3797 H         1 <0>         0.0974
     30 H15        -3.0367   -6.6495    2.8917 H         1 <0>         0.0867
     31 H16        -3.8335   -6.9285    1.3139 H         1 <0>         0.0867
     32 H17        -0.2715   -7.3394    1.7669 H         1 <0>         0.0676
     33 H18        -1.5218   -8.1506    0.7939 H         1 <0>         0.0865
     34 H19        -0.3956   -7.0085    0.0224 H         1 <0>         0.0764
     35 H20        -2.4426    1.6291   -0.9868 H         1 <0>         0.4448
     36 H21         0.4254   -0.5938   -0.2475 H         1 <0>         0.4352
@<TRIPOS>BOND
     1    1    2 1
     2    1   17 1
     3    1   18 1
     4    1   19 1
     5    2    3 1
     6    2   20 1
     7    2   36 1
     8    3    4 1
     9    3    5 1
    10    3    7 1
    11    5    6 1
    12    5   21 1
    13    5   22 1
    14    6   23 1
    15    6   24 1
    16    6   35 1
    17    7   12 ar
    18    7    8 ar
    19    8    9 ar
    20    8   25 1
    21    9   10 ar
    22    9   26 1
    23   10   15 1
    24   10   11 ar
    25   11   12 ar
    26   11   13 1
    27   12   27 1
    28   13   14 1
    29   13   28 1
    30   13   29 1
    31   14   15 1
    32   14   30 1
    33   14   31 1
    34   15   16 1
    35   16   32 1
    36   16   33 1
    37   16   34 1
@<TRIPOS>MOLECULE
ZINC55090262
   41    42     0     0     0
SMALL
USER_CHARGES

@<TRIPOS>ATOM
      1 C1         -0.0178    1.4648    0.0101 C.3       1 <0>        -0.0440
      2 N1          0.0021   -0.0041    0.0020 N.4       1 <0>        -0.3948
      3 C2         -1.3755   -0.5431    0.1387 C.3       1 <0>        -0.0060
      4 C3         -1.1803   -1.9787    0.6719 C.3       1 <0>        -0.1611
      5 C4          0.1959   -1.9639    1.3686 C.3       1 <0>         0.1233
      6 H1          0.8720   -2.6698    0.8863 H         1 <0>         0.1316
      7 C5          0.7164   -0.5206    1.1978 C.3       1 <0>        -0.0138
      8 N2          0.0503   -2.2897    2.7895 N.am      1 <0>        -0.7111
      9 C6          0.0484   -3.5769    3.1889 C.2       1 <0>         0.5275
     10 O1          0.1672   -4.4655    2.3721 O.2       1 <0>        -0.5352
     11 C7         -0.1012   -3.9121    4.6505 C.3       1 <0>        -0.1309
     12 H2         -1.0502   -3.5211    5.0177 H         1 <0>         0.1286
     13 C8          1.0490   -3.2822    5.4386 C.3       1 <0>        -0.1126
     14 C9          2.3810   -3.8311    4.9233 C.3       1 <0>        -0.1331
     15 C10         2.4107   -5.3501    5.1039 C.3       1 <0>        -0.1203
     16 C11         1.2604   -5.9800    4.3158 C.3       1 <0>        -0.1576
     17 C12        -0.0715   -5.4311    4.8311 C.3       1 <0>         0.0490
     18 H3         -0.1798   -5.6735    5.8883 H         1 <0>         0.1545
     19 N3         -1.1759   -6.0359    4.0744 N.4       1 <0>        -0.6397
     20 H4          1.0047    1.8421    0.0024 H         1 <0>         0.1282
     21 H5         -0.5450    1.8259   -0.8730 H         1 <0>         0.1306
     22 H6         -0.5280    1.8163    0.9069 H         1 <0>         0.1234
     23 H7         -1.9478    0.0521    0.8502 H         1 <0>         0.1363
     24 H8         -1.8742   -0.5621   -0.8304 H         1 <0>         0.1428
     25 H9         -1.9643   -2.2267    1.3874 H         1 <0>         0.1131
     26 H10        -1.1797   -2.6919   -0.1524 H         1 <0>         0.1127
     27 H11         1.7928   -0.5225    1.0262 H         1 <0>         0.1489
     28 H12         0.4715    0.0782    2.0751 H         1 <0>         0.1394
     29 H13        -0.0447   -1.5790    3.4428 H         1 <0>         0.4157
     30 H14         1.0278   -2.2001    5.3100 H         1 <0>         0.0868
     31 H15         0.9407   -3.5247    6.4958 H         1 <0>         0.0992
     32 H16         2.4892   -3.5887    3.8662 H         1 <0>         0.0635
     33 H17         3.2004   -3.3824    5.4848 H         1 <0>         0.0888
     34 H18         3.3596   -5.7411    4.7368 H         1 <0>         0.0893
     35 H19         2.3024   -5.5925    6.1611 H         1 <0>         0.0799
     36 H20         1.3687   -5.7376    3.2586 H         1 <0>         0.1107
     37 H21         1.2816   -7.0622    4.4444 H         1 <0>         0.0932
     38 H22        -1.0757   -5.8115    3.0958 H         1 <0>         0.4353
     39 H23        -1.1563   -7.0376    4.1935 H         1 <0>         0.4407
     40 H24        -2.0543   -5.6739    4.4143 H         1 <0>         0.4309
     41 H25         0.4347   -0.3465   -0.8428 H         1 <0>         0.4363
@<TRIPOS>BOND
     1    1    2 1
     2    1   20 1
     3    1   21 1
     4    1   22 1
     5    2    7 1
     6    2    3 1
     7    2   41 1
     8    3    4 1
     9    3   23 1
    10    3   24 1
    11    4    5 1
    12    4   25 1
    13    4   26 1
    14    5    6 1
    15    5    7 1
    16    5    8 1
    17    7   27 1
    18    7   28 1
    19    8    9 am
    20    8   29 1
    21    9   10 2
    22    9   11 1
    23   11   12 1
    24   11   17 1
    25   11   13 1
    26   13   14 1
    27   13   30 1
    28   13   31 1
    29   14   15 1
    30   14   32 1
    31   14   33 1
    32   15   16 1
    33   15   34 1
    34   15   35 1
    35   16   17 1
    36   16   36 1
    37   16   37 1
    38   17   18 1
    39   17   19 1
    40   19   38 1
    41   19   39 1
    42   19   40 1
@<TRIPOS>MOLECULE
ZINC63066493
   34    34     0     0     0
SMALL
USER_CHARGES

@<TRIPOS>ATOM
      1 C1         -0.0187    1.5258    0.0104 C.3       1 <0>        -0.1764
      2 C2          0.0021   -0.0041    0.0020 C.3       1 <0>         0.0520
      3 C3         -1.4401   -0.5490    0.0693 C.3       1 <0>        -0.1340
      4 C4         -1.6280   -0.8550    1.5786 C.3       1 <0>        -0.1433
      5 C5         -0.2139   -1.3466    1.9766 C.3       1 <0>        -0.0157
      6 N1          0.7135   -0.5026    1.1934 N.4       1 <0>        -0.3820
      7 C6          1.8756   -1.2993    0.7778 C.3       1 <0>        -0.0476
      8 C7          2.6804   -1.7098    2.0126 C.3       1 <0>         0.0547
      9 H1          2.0511   -2.3036    2.6755 H         1 <0>         0.1450
     10 C8          3.8908   -2.5396    1.5798 C.3       1 <0>        -0.0382
     11 N2          4.5963   -3.0340    2.7697 N.4       1 <0>        -0.6332
     12 O1          3.1266   -0.5397    2.7010 O.3       1 <0>        -0.5480
     13 C9          0.6939   -0.5080   -1.2662 C.3       1 <0>        -0.1765
     14 H2          1.0039    1.9031    0.0027 H         1 <0>         0.0806
     15 H3         -0.5459    1.8868   -0.8726 H         1 <0>         0.1122
     16 H4         -0.5289    1.8773    0.9072 H         1 <0>         0.0857
     17 H5         -2.1532    0.2056   -0.2626 H         1 <0>         0.1190
     18 H6         -1.5364   -1.4588   -0.5232 H         1 <0>         0.1033
     19 H7         -1.8974    0.0463    2.1292 H         1 <0>         0.1029
     20 H8         -2.3704   -1.6389    1.7286 H         1 <0>         0.1225
     21 H9         -0.0485   -1.2022    3.0443 H         1 <0>         0.1369
     22 H10        -0.0882   -2.3962    1.7108 H         1 <0>         0.1308
     23 H11         1.5353   -2.1918    0.2527 H         1 <0>         0.1525
     24 H12         2.5049   -0.7055    0.1149 H         1 <0>         0.1481
     25 H13         3.5557   -3.3848    0.9787 H         1 <0>         0.1552
     26 H14         4.5648   -1.9186    0.9897 H         1 <0>         0.1496
     27 H15         4.9065   -2.2516    3.3261 H         1 <0>         0.4438
     28 H16         3.9724   -3.6089    3.3159 H         1 <0>         0.4405
     29 H17         3.6928    0.0370    2.1702 H         1 <0>         0.4053
     30 H18         1.7212   -0.1445   -1.2885 H         1 <0>         0.0811
     31 H19         0.6939   -1.5980   -1.2713 H         1 <0>         0.0818
     32 H20         0.1593   -0.1406   -2.1421 H         1 <0>         0.1108
     33 H21         1.0210    0.2765    1.7560 H         1 <0>         0.4295
     34 H22         5.3945   -3.5813    2.4843 H         1 <0>         0.4507
@<TRIPOS>BOND
     1    1    2 1
     2    1   14 1
     3    1   15 1
     4    1   16 1
     5    2    6 1
     6    2    3 1
     7    2   13 1
     8    3    4 1
     9    3   17 1
    10    3   18 1
    11    4    5 1
    12    4   19 1
    13    4   20 1
    14    5    6 1
    15    5   21 1
    16    5   22 1
    17    6    7 1
    18    6   33 1
    19    7    8 1
    20    7   23 1
    21    7   24 1
    22    8    9 1
    23    8   10 1
    24    8   12 1
    25   10   11 1
    26   10   25 1
    27   10   26 1
    28   11   27 1
    29   11   28 1
    30   11   34 1
    31   12   29 1
    32   13   30 1
    33   13   31 1
    34   13   32 1
@<TRIPOS>MOLECULE
ZINC37870001
   32    32     0     0     0
SMALL
USER_CHARGES

@<TRIPOS>ATOM
      1 C1         -0.0184    1.5028    0.0103 C.3       1 <0>        -0.1205
      2 C2          0.0021   -0.0041    0.0020 C.ar      1 <0>        -0.0879
      3 C3          0.0057   -0.6888   -1.1978 C.ar      1 <0>        -0.0814
      4 C4          0.0244   -2.0713   -1.2061 C.ar      1 <0>        -0.1572
      5 C5          0.0395   -2.7720   -0.0142 C.ar      1 <0>        -0.1081
      6 C6          0.0359   -2.0919    1.1883 C.ar      1 <0>        -0.0858
      7 C7          0.0230   -0.7047    1.1992 C.ar      1 <0>         0.1409
      8 O1          0.0255   -0.0333    2.3808 O.3       1 <0>        -0.4848
      9 C8          0.0523   -2.8562    2.4870 C.3       1 <0>        -0.1206
     10 C9          0.0279   -2.8157   -2.5164 C.3       1 <0>         0.0627
     11 H1         -0.3365   -2.1604   -3.3075 H         1 <0>         0.1726
     12 C10         1.4316   -3.2594   -2.8384 C.2       1 <0>         0.5198
     13 O2          1.6797   -4.4393   -2.9693 O.2       1 <0>        -0.5266
     14 N1          2.4114   -2.3449   -2.9808 N.am      1 <0>        -0.8175
     15 N2         -0.8460   -3.9920   -2.4135 N.4       1 <0>        -0.4906
     16 C11        -0.9373   -4.6502   -3.7237 C.3       1 <0>        -0.0613
     17 H2          1.0042    1.8801    0.0026 H         1 <0>         0.0839
     18 H3         -0.5455    1.8639   -0.8728 H         1 <0>         0.0751
     19 H4         -0.5286    1.8543    0.9071 H         1 <0>         0.0775
     20 H5         -0.0064   -0.1438   -2.1301 H         1 <0>         0.1414
     21 H6          0.0538   -3.8518   -0.0233 H         1 <0>         0.1265
     22 H7         -0.8570    0.1493    2.7313 H         1 <0>         0.4016
     23 H8          1.0838   -3.0266    2.7953 H         1 <0>         0.0838
     24 H9         -0.4658   -2.2805    3.2539 H         1 <0>         0.0785
     25 H10        -0.4492   -3.8144    2.3510 H         1 <0>         0.0724
     26 H11         2.2130   -1.4012   -2.8761 H         1 <0>         0.4127
     27 H12         3.3150   -2.6305   -3.1881 H         1 <0>         0.4253
     28 H13        -0.4633   -4.6374   -1.7389 H         1 <0>         0.4329
     29 H14        -1.3507   -3.9531   -4.4525 H         1 <0>         0.1236
     30 H15         0.0568   -4.9629   -4.0433 H         1 <0>         0.1408
     31 H16        -1.5857   -5.5230   -3.6474 H         1 <0>         0.1327
     32 H17        -1.7662   -3.7026   -2.1177 H         1 <0>         0.4377
@<TRIPOS>BOND
     1    1    2 1
     2    1   17 1
     3    1   18 1
     4    1   19 1
     5    2    7 ar
     6    2    3 ar
     7    3    4 ar
     8    3   20 1
     9    4    5 ar
    10    4   10 1
    11    5    6 ar
    12    5   21 1
    13    6    7 ar
    14    6    9 1
    15    7    8 1
    16    8   22 1
    17    9   23 1
    18    9   24 1
    19    9   25 1
    20   10   11 1
    21   10   12 1
    22   10   15 1
    23   12   13 2
    24   12   14 am
    25   14   26 1
    26   14   27 1
    27   15   16 1
    28   15   28 1
    29   15   32 1
    30   16   29 1
    31   16   30 1
    32   16   31 1
@<TRIPOS>MOLECULE
ZINC40922229
   35    35     0     0     0
SMALL
USER_CHARGES

@<TRIPOS>ATOM
      1 C1          0.0174    1.5032   -0.0149 C.3       1 <0>        -0.1166
      2 C2          0.0284   -0.0037   -0.0165 C.ar      1 <0>        -0.0971
      3 C3          0.0273   -0.6927   -1.2147 C.ar      1 <0>        -0.0918
      4 C4          0.0373   -2.0738   -1.2202 C.ar      1 <0>        -0.1135
      5 C5          0.0480   -2.7741   -0.0203 C.ar      1 <0>         0.1215
      6 C6          0.0491   -2.0841    1.1835 C.ar      1 <0>        -0.1216
      7 C7          0.0452   -0.6978    1.1849 C.ar      1 <0>         0.1226
      8 O1          0.0523   -0.0191    2.3623 O.3       1 <0>        -0.4865
      9 C8          0.0607   -2.8403    2.4870 C.3       1 <0>        -0.1118
     10 N1          0.0572   -4.1732   -0.0258 N.am      1 <0>        -0.6632
     11 C9         -0.6081   -4.8477   -0.9844 C.2       1 <0>         0.4969
     12 O2         -1.1466   -4.2440   -1.8881 O.2       1 <0>        -0.4541
     13 C10        -0.6831   -6.3520   -0.9333 C.3       1 <0>         0.0512
     14 C11        -1.8465   -6.7744   -0.0340 C.3       1 <0>        -0.1770
     15 C12        -0.9044   -6.8998   -2.3447 C.3       1 <0>        -0.1684
     16 N2          0.5735   -6.8868   -0.3920 N.4       1 <0>        -0.6351
     17 H1          1.0424    1.8740   -0.0246 H         1 <0>         0.0792
     18 H2         -0.5077    1.8637   -0.8994 H         1 <0>         0.0721
     19 H3         -0.4903    1.8620    0.8805 H         1 <0>         0.0724
     20 H4          0.0183   -0.1500   -2.1484 H         1 <0>         0.1379
     21 H5          0.0365   -2.6098   -2.1578 H         1 <0>         0.1408
     22 H6         -0.8290    0.1713    2.7118 H         1 <0>         0.3942
     23 H7          1.0911   -3.0155    2.7963 H         1 <0>         0.0769
     24 H8         -0.4535   -2.2564    3.2504 H         1 <0>         0.0808
     25 H9         -0.4472   -3.7960    2.3572 H         1 <0>         0.0566
     26 H10         0.5424   -4.6578    0.6602 H         1 <0>         0.4001
     27 H11        -2.7789   -6.3776   -0.4356 H         1 <0>         0.1171
     28 H12        -1.9007   -7.8625    0.0029 H         1 <0>         0.1034
     29 H13        -1.6888   -6.3842    0.9715 H         1 <0>         0.0880
     30 H14        -0.0756   -6.5988   -2.9854 H         1 <0>         0.0893
     31 H15        -0.9586   -7.9878   -2.3077 H         1 <0>         0.0978
     32 H16        -1.8368   -6.5030   -2.7463 H         1 <0>         0.1202
     33 H17         0.7195   -6.5255    0.5387 H         1 <0>         0.4306
     34 H18         0.5233   -7.8939   -0.3579 H         1 <0>         0.4460
     35 H19         1.3408   -6.6082   -0.9851 H         1 <0>         0.4413
@<TRIPOS>BOND
     1    1    2 1
     2    1   17 1
     3    1   18 1
     4    1   19 1
     5    2    7 ar
     6    2    3 ar
     7    3    4 ar
     8    3   20 1
     9    4    5 ar
    10    4   21 1
    11    5    6 ar
    12    5   10 1
    13    6    7 ar
    14    6    9 1
    15    7    8 1
    16    8   22 1
    17    9   23 1
    18    9   24 1
    19    9   25 1
    20   10   11 am
    21   10   26 1
    22   11   12 2
    23   11   13 1
    24   13   14 1
    25   13   15 1
    26   13   16 1
    27   14   27 1
    28   14   28 1
    29   14   29 1
    30   15   30 1
    31   15   31 1
    32   15   32 1
    33   16   33 1
    34   16   34 1
    35   16   35 1
@<TRIPOS>MOLECULE
ZINC44474521
   39    39     0     0     0
SMALL
USER_CHARGES

@<TRIPOS>ATOM
      1 C1         -0.1667    1.2361    0.3238 C.3       1 <0>        -0.1535
      2 C2         -0.2404   -0.2779    0.1154 C.3       1 <0>        -0.0300
      3 C3          0.3812   -0.9892    1.3190 C.3       1 <0>        -0.1414
      4 C4         -1.7033   -0.7023   -0.0282 C.3       1 <0>        -0.1406
      5 C5          0.5157   -0.6504   -1.1338 C.ar      1 <0>        -0.0572
      6 C6          0.5834   -1.9732   -1.5309 C.ar      1 <0>        -0.0685
      7 C7          1.2761   -2.3180   -2.6754 C.ar      1 <0>        -0.1175
      8 C8          1.9040   -1.3359   -3.4272 C.ar      1 <0>         0.1069
      9 C9          1.8345   -0.0085   -3.0272 C.ar      1 <0>        -0.0541
     10 C10         1.1355    0.3316   -1.8839 C.ar      1 <0>        -0.0837
     11 Cl1         2.6188    1.2240   -3.9652 Cl        1 <0>        -0.0399
     12 O1          2.5865   -1.6728   -4.5534 O.3       1 <0>        -0.3321
     13 C11         3.9868   -1.9208   -4.4136 C.3       1 <0>         0.0301
     14 C12         1.3499   -3.7601   -3.1064 C.3       1 <0>         0.1217
     15 H1          2.3171   -3.9514   -3.5711 H         1 <0>         0.0736
     16 C13         0.2344   -4.0493   -4.1129 C.3       1 <0>        -0.0008
     17 N1          0.2569   -5.4733   -4.4731 N.4       1 <0>        -0.6384
     18 N2          1.1893   -4.6305   -1.9340 N.3       1 <0>        -0.8448
     19 H2          0.8755    1.5384    0.4261 H         1 <0>         0.0616
     20 H3         -0.6095    1.7428   -0.5336 H         1 <0>         0.0617
     21 H4         -0.7135    1.5055    1.2274 H         1 <0>         0.0679
     22 H5         -0.1657   -0.7197    2.2226 H         1 <0>         0.0667
     23 H6          0.3287   -2.0678    1.1705 H         1 <0>         0.0581
     24 H7          1.4234   -0.6868    1.4213 H         1 <0>         0.0584
     25 H8         -2.1462   -0.1955   -0.8856 H         1 <0>         0.0583
     26 H9         -1.7559   -1.7809   -0.1766 H         1 <0>         0.0570
     27 H10        -2.2502   -0.4328    0.8754 H         1 <0>         0.0668
     28 H11         0.0944   -2.7378   -0.9454 H         1 <0>         0.1499
     29 H12         1.0775    1.3646   -1.5740 H         1 <0>         0.1489
     30 H13         4.4236   -2.1016   -5.3957 H         1 <0>         0.1037
     31 H14         4.4654   -1.0544   -3.9570 H         1 <0>         0.0573
     32 H15         4.1396   -2.7955   -3.7814 H         1 <0>         0.0444
     33 H16        -0.7295   -3.8022   -3.6680 H         1 <0>         0.1444
     34 H17         0.3870   -3.4458   -5.0077 H         1 <0>         0.1459
     35 H18         1.1492   -5.7020   -4.8849 H         1 <0>         0.4339
     36 H19         0.1157   -6.0320   -3.6448 H         1 <0>         0.4334
     37 H20         1.1706   -5.6022   -2.2049 H         1 <0>         0.3345
     38 H21         1.9146   -4.4585   -1.2539 H         1 <0>         0.3750
     39 H22        -0.4787   -5.6640   -5.1368 H         1 <0>         0.4426
@<TRIPOS>BOND
     1    1    2 1
     2    1   19 1
     3    1   20 1
     4    1   21 1
     5    2    3 1
     6    2    4 1
     7    2    5 1
     8    3   22 1
     9    3   23 1
    10    3   24 1
    11    4   25 1
    12    4   26 1
    13    4   27 1
    14    5   10 ar
    15    5    6 ar
    16    6    7 ar
    17    6   28 1
    18    7    8 ar
    19    7   14 1
    20    8    9 ar
    21    8   12 1
    22    9   10 ar
    23    9   11 1
    24   10   29 1
    25   12   13 1
    26   13   30 1
    27   13   31 1
    28   13   32 1
    29   14   15 1
    30   14   16 1
    31   14   18 1
    32   16   17 1
    33   16   33 1
    34   16   34 1
    35   17   35 1
    36   17   36 1
    37   17   39 1
    38   18   37 1
    39   18   38 1
@<TRIPOS>MOLECULE
ZINC54457902
   36    37     0     0     0
SMALL
USER_CHARGES

@<TRIPOS>ATOM
      1 C1         -0.0097    1.4926    0.0038 C.3       1 <0>        -0.1258
      2 C2          0.0151   -0.0141    0.0019 C.ar      1 <0>        -0.0789
      3 C3          0.0273   -0.7015   -1.1975 C.ar      1 <0>        -0.1004
      4 C4          0.0504   -2.0812   -1.2070 C.ar      1 <0>        -0.0944
      5 C5          0.0617   -2.7873   -0.0030 C.ar      1 <0>        -0.0297
      6 C6          0.0495   -2.0942    1.2065 C.ar      1 <0>        -0.0765
      7 C7          0.0315   -0.7079    1.2056 C.ar      1 <0>         0.1672
      8 N1          0.0246   -0.0074    2.4173 N.am      1 <0>        -0.6847
      9 C8         -0.6323   -0.5089    3.4819 C.2       1 <0>         0.7105
     10 O1         -1.1494   -1.6073    3.4150 O.2       1 <0>        -0.5735
     11 N2         -0.7161    0.2072    4.6207 N.am      1 <0>        -0.7081
     12 C9         -1.4301   -0.3380    5.7779 C.3       1 <0>         0.0911
     13 C10        -2.3621    0.6051    6.5414 C.3       1 <0>        -0.1907
     14 C11        -1.0304    0.1777    7.1618 C.3       1 <0>        -0.1862
     15 C12         0.0853   -4.2191   -0.0101 C.1       1 <0>         0.0277
     16 C13         0.1046   -5.3930   -0.0160 C.1       1 <0>        -0.3005
     17 C14         0.1288   -6.8647   -0.0234 C.3       1 <0>         0.1471
     18 N3          0.1366   -7.3613    1.3591 N.4       1 <0>        -0.6372
     19 H1          1.0119    1.8728    0.0001 H         1 <0>         0.0812
     20 H2         -0.5331    1.8485   -0.8835 H         1 <0>         0.0804
     21 H3         -0.5257    1.8464    0.8964 H         1 <0>         0.0694
     22 H4          0.0182   -0.1568   -2.1300 H         1 <0>         0.1404
     23 H5          0.0595   -2.6146   -2.1461 H         1 <0>         0.1294
     24 H6          0.0581   -2.6353    2.1411 H         1 <0>         0.1507
     25 H7          0.4925    0.8391    2.4908 H         1 <0>         0.4125
     26 H8         -0.3036    1.0835    4.6740 H         1 <0>         0.4019
     27 H9         -1.7276   -1.3835    5.6970 H         1 <0>         0.1409
     28 H10        -2.4440    1.6311    6.1827 H         1 <0>         0.0990
     29 H11        -3.2731    0.1801    6.9629 H         1 <0>         0.1065
     30 H12        -1.0653   -0.5284    7.9914 H         1 <0>         0.1078
     31 H13        -0.2362    0.9226    7.2112 H         1 <0>         0.0994
     32 H14        -0.7549   -7.2401   -0.5393 H         1 <0>         0.1517
     33 H15         1.0248   -7.2108   -0.5388 H         1 <0>         0.1520
     34 H16         0.9547   -7.0138    1.8367 H         1 <0>         0.4382
     35 H17        -0.6928   -7.0409    1.8362 H         1 <0>         0.4380
     36 H18         0.1532   -8.3701    1.3541 H         1 <0>         0.4434
@<TRIPOS>BOND
     1    1    2 1
     2    1   19 1
     3    1   20 1
     4    1   21 1
     5    2    7 ar
     6    2    3 ar
     7    3    4 ar
     8    3   22 1
     9    4    5 ar
    10    4   23 1
    11    5    6 ar
    12    5   15 1
    13    6    7 ar
    14    6   24 1
    15    7    8 1
    16    8    9 am
    17    8   25 1
    18    9   10 2
    19    9   11 am
    20   11   12 1
    21   11   26 1
    22   12   14 1
    23   12   13 1
    24   12   27 1
    25   13   14 1
    26   13   28 1
    27   13   29 1
    28   14   30 1
    29   14   31 1
    30   15   16 3
    31   16   17 1
    32   17   18 1
    33   17   32 1
    34   17   33 1
    35   18   34 1
    36   18   35 1
    37   18   36 1
@<TRIPOS>MOLECULE
ZINC63211109
   36    37     0     0     0
SMALL
USER_CHARGES

@<TRIPOS>ATOM
      1 C1         -0.1512    1.4324   -0.0503 C.2       1 <0>        -0.0677
      2 C2          1.1699    1.8915   -0.0781 C.2       1 <0>        -0.1276
      3 C3          1.9854    0.8094   -0.1027 C.2       1 <0>         0.0616
      4 N1          1.2243   -0.3132   -0.0914 N.pl3     1 <0>        -0.5391
      5 H1          1.5588   -1.2236   -0.1035 H         1 <0>         0.4172
      6 C4         -0.1017    0.0544   -0.0589 C.2       1 <0>        -0.0716
      7 C5         -1.2527   -0.8544   -0.0375 C.2       1 <0>         0.6014
      8 O1         -2.3830   -0.4042   -0.0091 O.2       1 <0>        -0.4895
      9 N2         -1.0587   -2.1880   -0.0492 N.am      1 <0>        -0.7620
     10 C6         -2.2084   -3.0957   -0.0278 C.3       1 <0>         0.1265
     11 H2         -3.0400   -2.6233   -0.5506 H         1 <0>         0.1250
     12 C7         -2.6180   -3.3469    1.4360 C.3       1 <0>        -0.1298
     13 C8         -3.5123   -4.5905    1.6012 C.3       1 <0>        -0.1256
     14 C9         -4.5529   -4.6992    0.5197 C.3       1 <0>        -0.1308
     15 C10        -3.9996   -5.5998   -0.6036 C.3       1 <0>        -0.1302
     16 C11        -3.0890   -4.8875   -1.4879 C.3       1 <0>        -0.1274
     17 C12        -1.8398   -4.3653   -0.7465 C.3       1 <0>         0.0193
     18 H3         -1.5022   -5.1096   -0.0252 H         1 <0>         0.1544
     19 N3         -0.7703   -4.0911   -1.7155 N.4       1 <0>        -0.6341
     20 Cl1         1.6751    3.5524   -0.0811 Cl        1 <0>        -0.0257
     21 H4         -1.0420    2.0424   -0.0225 H         1 <0>         0.1632
     22 H5          3.0647    0.8365   -0.1273 H         1 <0>         0.1888
     23 H6         -0.1578   -2.5469   -0.0719 H         1 <0>         0.3845
     24 H7         -1.7172   -3.4797    2.0352 H         1 <0>         0.0753
     25 H8         -3.1574   -2.4745    1.8047 H         1 <0>         0.0889
     26 H9         -2.8850   -5.4816    1.5779 H         1 <0>         0.0656
     27 H10        -4.0127   -4.5391    2.5682 H         1 <0>         0.0799
     28 H11        -5.4615   -5.1408    0.9290 H         1 <0>         0.0813
     29 H12        -4.7713   -3.7086    0.1208 H         1 <0>         0.0737
     30 H13        -3.4702   -6.4398   -0.1541 H         1 <0>         0.0750
     31 H14        -4.8336   -5.9840   -1.1910 H         1 <0>         0.0889
     32 H15        -2.7715   -5.5608   -2.2841 H         1 <0>         0.0914
     33 H16        -3.6163   -4.0430   -1.9315 H         1 <0>         0.0946
     34 H17         0.0746   -3.8433   -1.2228 H         1 <0>         0.4269
     35 H18        -0.6042   -4.9143   -2.2750 H         1 <0>         0.4409
     36 H19        -1.0467   -3.3276   -2.3144 H         1 <0>         0.4372
@<TRIPOS>BOND
     1    1    6 2
     2    1    2 1
     3    1   21 1
     4    2    3 2
     5    2   20 1
     6    3    4 1
     7    3   22 1
     8    4    5 1
     9    4    6 1
    10    6    7 1
    11    7    8 2
    12    7    9 am
    13    9   10 1
    14    9   23 1
    15   10   11 1
    16   10   17 1
    17   10   12 1
    18   12   13 1
    19   12   24 1
    20   12   25 1
    21   13   14 1
    22   13   26 1
    23   13   27 1
    24   14   15 1
    25   14   28 1
    26   14   29 1
    27   15   16 1
    28   15   30 1
    29   15   31 1
    30   16   17 1
    31   16   32 1
    32   16   33 1
    33   17   18 1
    34   17   19 1
    35   19   34 1
    36   19   35 1
    37   19   36 1
@<TRIPOS>MOLECULE
ZINC38129218
   28    29     0     0     0
SMALL
USER_CHARGES

@<TRIPOS>ATOM
      1 C1         -0.0167    1.3782    0.0096 C.ar      1 <0>        -0.0719
      2 C2          1.1703    2.0860    0.0021 C.ar      1 <0>        -0.1422
      3 C3          2.3786    1.4101   -0.0131 C.ar      1 <0>         0.1204
      4 C4          2.3962    0.0256   -0.0207 C.ar      1 <0>        -0.1444
      5 C5          1.2079   -0.6800   -0.0132 C.ar      1 <0>        -0.1104
      6 C6          0.0021   -0.0041    0.0020 C.ar      1 <0>        -0.1432
      7 C7         -1.2930   -0.7747    0.0103 C.3       1 <0>        -0.0919
      8 C8         -1.7450   -1.0277   -1.4294 C.3       1 <0>         0.1222
      9 H1         -1.8071   -0.0792   -1.9627 H         1 <0>         0.1518
     10 C9         -3.0990   -1.6893   -1.4218 C.2       1 <0>        -0.2391
     11 C10        -4.3456   -1.0598   -1.6426 C.2       1 <0>        -0.1970
     12 C11        -5.2872   -2.0157   -1.5470 C.2       1 <0>        -0.0036
     13 O1         -4.6805   -3.1840   -1.2814 O.3       1 <0>        -0.1551
     14 C12        -3.3530   -2.9930   -1.2093 C.2       1 <0>        -0.0119
     15 N1         -0.7756   -1.9041   -2.1001 N.4       1 <0>        -0.6384
     16 F1          3.5396    2.1009   -0.0209 F         1 <0>        -0.1261
     17 H2         -0.9592    1.9052    0.0260 H         1 <0>         0.1414
     18 H3          1.1554    3.1659    0.0077 H         1 <0>         0.1467
     19 H4          3.3381   -0.5027   -0.0329 H         1 <0>         0.1459
     20 H5          1.2213   -1.7599   -0.0195 H         1 <0>         0.1331
     21 H6         -1.1453   -1.7280    0.5176 H         1 <0>         0.1004
     22 H7         -2.0553   -0.1984    0.5345 H         1 <0>         0.1246
     23 H8         -4.5103   -0.0124   -1.8481 H         1 <0>         0.1626
     24 H9         -6.3507   -1.8684   -1.6636 H         1 <0>         0.2167
     25 H10        -2.6149   -3.7563   -1.0119 H         1 <0>         0.2031
     26 H11         0.1310   -1.4612   -2.1052 H         1 <0>         0.4367
     27 H12        -0.7181   -2.7822   -1.6064 H         1 <0>         0.4297
     28 H13        -1.0737   -2.0710   -3.0495 H         1 <0>         0.4400
@<TRIPOS>BOND
     1    1    6 ar
     2    1    2 ar
     3    1   17 1
     4    2    3 ar
     5    2   18 1
     6    3    4 ar
     7    3   16 1
     8    4    5 ar
     9    4   19 1
    10    5    6 ar
    11    5   20 1
    12    6    7 1
    13    7    8 1
    14    7   21 1
    15    7   22 1
    16    8    9 1
    17    8   10 1
    18    8   15 1
    19   10   14 2
    20   10   11 1
    21   11   12 2
    22   11   23 1
    23   12   13 1
    24   12   24 1
    25   13   14 1
    26   14   25 1
    27   15   26 1
    28   15   27 1
    29   15   28 1
@<TRIPOS>MOLECULE
ZINC41728403
   40    43     0     0     0
SMALL
USER_CHARGES

@<TRIPOS>ATOM
      1 C1         -0.0167    1.3838    0.0097 C.ar      1 <0>        -0.1127
      2 C2          1.1707    2.0874    0.0021 C.ar      1 <0>        -0.0890
      3 C3          2.3815    1.4148   -0.0136 C.ar      1 <0>        -0.0772
      4 C4          2.4033    0.0318   -0.0213 C.ar      1 <0>        -0.0767
      5 C5          1.2152   -0.6770   -0.0136 C.ar      1 <0>        -0.0991
      6 C6          0.0021   -0.0041    0.0020 C.ar      1 <0>         0.0942
      7 N1         -1.2011   -0.7237    0.0101 N.pl3     1 <0>        -0.3756
      8 C7         -1.5259   -1.7455   -0.8391 C.2       1 <0>         0.0135
      9 C8         -2.7627   -2.1846   -0.5195 C.2       1 <0>        -0.1905
     10 C9         -3.2147   -1.4107    0.5599 C.2       1 <0>        -0.2436
     11 C10        -2.2386   -0.5263    0.8678 C.2       1 <0>         0.0822
     12 C11        -2.3389    0.4883    1.9802 C.3       1 <0>        -0.0694
     13 C12        -3.8119    0.6174    2.3866 C.3       1 <0>        -0.1084
     14 C13        -4.3999   -0.7755    2.6283 C.3       1 <0>        -0.1424
     15 C14        -4.5326   -1.5092    1.2854 C.3       1 <0>         0.1214
     16 H1         -5.3182   -1.0530    0.6831 H         1 <0>         0.1444
     17 N2         -4.8558   -2.9204    1.5348 N.4       1 <0>        -0.6334
     18 C15         3.8359   -0.4571   -0.0385 C.3       1 <0>        -0.0861
     19 C16         4.6733    0.7616   -0.4808 C.3       1 <0>        -0.1221
     20 C17         3.7982    1.9483   -0.0248 C.3       1 <0>        -0.0898
     21 H2         -0.9586    1.9121    0.0260 H         1 <0>         0.1322
     22 H3          1.1557    3.1672    0.0081 H         1 <0>         0.1363
     23 H4          1.2321   -1.7568   -0.0199 H         1 <0>         0.1291
     24 H5         -0.9011   -2.1339   -1.6298 H         1 <0>         0.1736
     25 H6         -3.3036   -2.9833   -1.0053 H         1 <0>         0.1464
     26 H7         -1.7502    0.1552    2.8350 H         1 <0>         0.0898
     27 H8         -1.9684    1.4524    1.6321 H         1 <0>         0.0895
     28 H9         -3.8862    1.2066    3.3006 H         1 <0>         0.0942
     29 H10        -4.3665    1.1124    1.5895 H         1 <0>         0.0806
     30 H11        -3.7425   -1.3374    3.2918 H         1 <0>         0.0887
     31 H12        -5.3840   -0.6799    3.0873 H         1 <0>         0.0949
     32 H13        -4.1309   -3.3367    2.0998 H         1 <0>         0.4331
     33 H14        -5.7381   -2.9826    2.0203 H         1 <0>         0.4341
     34 H15         4.1368   -0.7813    0.9578 H         1 <0>         0.0875
     35 H16         3.9486   -1.2727   -0.7526 H         1 <0>         0.0813
     36 H17         5.6377    0.7738    0.0270 H         1 <0>         0.0847
     37 H18         4.8039    0.7698   -1.5629 H         1 <0>         0.0773
     38 H19         3.8854    2.7753   -0.7295 H         1 <0>         0.0838
     39 H20         4.0890    2.2704    0.9752 H         1 <0>         0.0890
     40 H21        -4.9204   -3.4110    0.6555 H         1 <0>         0.4347
@<TRIPOS>BOND
     1    1    6 ar
     2    1    2 ar
     3    1   21 1
     4    2    3 ar
     5    2   22 1
     6    3   20 1
     7    3    4 ar
     8    4    5 ar
     9    4   18 1
    10    5    6 ar
    11    5   23 1
    12    6    7 1
    13    7   11 1
    14    7    8 1
    15    8    9 2
    16    8   24 1
    17    9   10 1
    18    9   25 1
    19   10   15 1
    20   10   11 2
    21   11   12 1
    22   12   13 1
    23   12   26 1
    24   12   27 1
    25   13   14 1
    26   13   28 1
    27   13   29 1
    28   14   15 1
    29   14   30 1
    30   14   31 1
    31   15   16 1
    32   15   17 1
    33   17   32 1
    34   17   33 1
    35   17   40 1
    36   18   19 1
    37   18   34 1
    38   18   35 1
    39   19   20 1
    40   19   36 1
    41   19   37 1
    42   20   38 1
    43   20   39 1
@<TRIPOS>MOLECULE
ZINC54402986
   36    36     0     0     0
SMALL
USER_CHARGES

@<TRIPOS>ATOM
      1 C1          0.0590    1.5866   -0.0830 C.3       1 <0>        -0.1611
      2 C2          0.0638    0.0566   -0.0677 C.3       1 <0>        -0.1279
      3 C3          0.7573   -0.4385    1.2031 C.3       1 <0>        -0.0759
      4 C4          2.1978    0.0764    1.2316 C.3       1 <0>        -0.1678
      5 C5          0.0056    0.0815    2.4300 C.3       1 <0>        -0.1523
      6 C6          0.7621   -1.9684    1.2184 C.3       1 <0>         0.1245
      7 H1         -0.2597   -2.3359    1.1237 H         1 <0>         0.1459
      8 C7          1.3529   -2.4559    2.5163 C.2       1 <0>        -0.2428
      9 C8          2.7203   -2.6996    2.7806 C.2       1 <0>        -0.2284
     10 C9          2.8018   -3.1199    4.0558 C.2       1 <0>         0.0299
     11 O1          1.5633   -3.1435    4.5748 O.3       1 <0>        -0.1591
     12 C10         0.6812   -2.7370    3.6473 C.2       1 <0>         0.0566
     13 C11        -0.8088   -2.6190    3.8399 C.3       1 <0>        -0.1057
     14 C12         4.0679   -3.5003    4.7791 C.3       1 <0>        -0.0896
     15 N1          1.5679   -2.4668    0.0958 N.4       1 <0>        -0.6343
     16 H2          1.0853    1.9533   -0.0627 H         1 <0>         0.0634
     17 H3         -0.4350    1.9393   -0.9883 H         1 <0>         0.0660
     18 H4         -0.4766    1.9570    0.7911 H         1 <0>         0.0674
     19 H5         -0.9624   -0.3101   -0.0879 H         1 <0>         0.0798
     20 H6          0.5994   -0.3138   -0.9417 H         1 <0>         0.0579
     21 H7          2.1944    1.1663    1.2206 H         1 <0>         0.0876
     22 H8          2.6919   -0.2764    2.1369 H         1 <0>         0.0783
     23 H9          2.7334   -0.2941    0.3575 H         1 <0>         0.0492
     24 H10        -1.0442   -0.2037    2.3608 H         1 <0>         0.0696
     25 H11         0.4403   -0.3491    3.3320 H         1 <0>         0.0710
     26 H12         0.0849    1.1678    2.4714 H         1 <0>         0.0807
     27 H13         3.5416   -2.5733    2.0908 H         1 <0>         0.1514
     28 H14        -1.2929   -3.5334    3.4970 H         1 <0>         0.0949
     29 H15        -1.0275   -2.4663    4.8967 H         1 <0>         0.0922
     30 H16        -1.1835   -1.7720    3.2651 H         1 <0>         0.0998
     31 H17         4.4863   -2.6199    5.2667 H         1 <0>         0.0922
     32 H18         3.8440   -4.2590    5.5290 H         1 <0>         0.0861
     33 H19         4.7892   -3.8973    4.0648 H         1 <0>         0.0961
     34 H20         2.5137   -2.1266    0.1836 H         1 <0>         0.4313
     35 H21         1.5710   -3.4758    0.1059 H         1 <0>         0.4378
     36 H22         1.1723   -2.1404   -0.7731 H         1 <0>         0.4350
@<TRIPOS>BOND
     1    1    2 1
     2    1   16 1
     3    1   17 1
     4    1   18 1
     5    2    3 1
     6    2   19 1
     7    2   20 1
     8    3    4 1
     9    3    5 1
    10    3    6 1
    11    4   21 1
    12    4   22 1
    13    4   23 1
    14    5   24 1
    15    5   25 1
    16    5   26 1
    17    6    7 1
    18    6    8 1
    19    6   15 1
    20    8   12 2
    21    8    9 1
    22    9   10 2
    23    9   27 1
    24   10   11 1
    25   10   14 1
    26   11   12 1
    27   12   13 1
    28   13   28 1
    29   13   29 1
    30   13   30 1
    31   14   31 1
    32   14   32 1
    33   14   33 1
    34   15   34 1
    35   15   35 1
    36   15   36 1
@<TRIPOS>MOLECULE
ZINC62332103
   33    35     0     0     0
SMALL
USER_CHARGES

@<TRIPOS>ATOM
      1 C1         -0.0167    1.3780    0.0096 C.ar      1 <0>        -0.1152
      2 C2          1.1713    2.0868    0.0021 C.ar      1 <0>        -0.0806
      3 C3          2.3745    1.4126   -0.0131 C.ar      1 <0>        -0.0987
      4 C4          2.3933    0.0263   -0.0208 C.ar      1 <0>        -0.1148
      5 C5          1.2088   -0.6803   -0.0132 C.ar      1 <0>        -0.0632
      6 C6          0.0021   -0.0041    0.0020 C.ar      1 <0>        -0.1433
      7 C7         -1.2929   -0.7748    0.0103 C.3       1 <0>         0.0923
      8 H1         -1.1147   -1.7885   -0.3484 H         1 <0>         0.1507
      9 C8         -1.8456   -0.8280    1.4360 C.3       1 <0>        -0.1082
     10 C9         -3.0926   -1.7141    1.4668 C.3       1 <0>        -0.1991
     11 C10        -4.4206   -1.0520    1.8394 C.3       1 <0>        -0.1866
     12 C11        -3.7292   -1.9906    2.8303 C.3       1 <0>        -0.1578
     13 N1         -2.2648   -0.1087   -0.8671 N.4       1 <0>        -0.6353
     14 C12         3.8419   -0.4024   -0.0370 C.3       1 <0>         0.0829
     15 O1          4.5915    0.7519   -0.4585 O.3       1 <0>        -0.3502
     16 C13         3.8109    1.8807   -0.0243 C.3       1 <0>         0.0794
     17 H2         -0.9593    1.9048    0.0260 H         1 <0>         0.1272
     18 H3          1.1567    3.1666    0.0077 H         1 <0>         0.1407
     19 H4          1.2235   -1.7602   -0.0191 H         1 <0>         0.1391
     20 H5         -1.0896   -1.2413    2.1036 H         1 <0>         0.1162
     21 H6         -2.1071    0.1787    1.7621 H         1 <0>         0.0919
     22 H7         -3.1189   -2.5145    0.7275 H         1 <0>         0.1157
     23 H8         -4.4060    0.0148    2.0626 H         1 <0>         0.1004
     24 H9         -5.3210   -1.4168    1.3451 H         1 <0>         0.1049
     25 H10        -4.1746   -2.9728    2.9879 H         1 <0>         0.1060
     26 H11        -3.2596   -1.5413    3.7054 H         1 <0>         0.1034
     27 H12        -2.4297    0.8297   -0.5351 H         1 <0>         0.4307
     28 H13        -1.9003   -0.0736   -1.8073 H         1 <0>         0.4382
     29 H14         4.1541   -0.7089    0.9613 H         1 <0>         0.0887
     30 H15         3.9835   -1.2205   -0.7432 H         1 <0>         0.1070
     31 H16         3.9302    2.7102   -0.7212 H         1 <0>         0.1088
     32 H17         4.1148    2.1843    0.9775 H         1 <0>         0.0904
     33 H18        -3.1318   -0.6247   -0.8616 H         1 <0>         0.4386
@<TRIPOS>BOND
     1    1    6 ar
     2    1    2 ar
     3    1   17 1
     4    2    3 ar
     5    2   18 1
     6    3   16 1
     7    3    4 ar
     8    4    5 ar
     9    4   14 1
    10    5    6 ar
    11    5   19 1
    12    6    7 1
    13    7    8 1
    14    7    9 1
    15    7   13 1
    16    9   10 1
    17    9   20 1
    18    9   21 1
    19   10   12 1
    20   10   11 1
    21   10   22 1
    22   11   12 1
    23   11   23 1
    24   11   24 1
    25   12   25 1
    26   12   26 1
    27   13   27 1
    28   13   28 1
    29   13   33 1
    30   14   15 1
    31   14   29 1
    32   14   30 1
    33   15   16 1
    34   16   31 1
    35   16   32 1
@<TRIPOS>MOLECULE
ZINC63100421
   32    32     0     0     0
SMALL
USER_CHARGES

@<TRIPOS>ATOM
      1 C1         -0.0187    1.5258    0.0104 C.3       1 <0>        -0.1713
      2 C2          0.0021   -0.0041    0.0020 C.3       1 <0>        -0.1053
      3 H1         -1.0203   -0.3819    0.0098 H         1 <0>         0.1064
      4 C3          0.7200   -0.4984   -1.2559 C.3       1 <0>         0.0588
      5 N1          0.7587   -1.9664   -1.2540 N.3       1 <0>        -0.5377
      6 C4          1.5079   -2.4763   -0.0986 C.3       1 <0>         0.0461
      7 C5          0.8136   -2.0410    1.1939 C.3       1 <0>        -0.1378
      8 C6          0.7442   -0.5121    1.2412 C.3       1 <0>         0.0260
      9 H2          1.7542   -0.1024    1.2544 H         1 <0>         0.1406
     10 N2          0.0260   -0.0897    2.4511 N.4       1 <0>        -0.6359
     11 C7          1.3171   -2.4799   -2.5119 C.3       1 <0>         0.0514
     12 C8          1.1140   -3.9949   -2.5792 C.3       1 <0>        -0.1663
     13 C9          1.6957   -4.5297   -3.8893 C.3       1 <0>         0.4541
     14 F1          3.0631   -4.2396   -3.9452 F         1 <0>        -0.1834
     15 F2          1.5099   -5.9150   -3.9508 F         1 <0>        -0.1786
     16 F3          1.0458   -3.9236   -4.9698 F         1 <0>        -0.1806
     17 H3          1.0039    1.9031    0.0027 H         1 <0>         0.0733
     18 H4         -0.5459    1.8868   -0.8726 H         1 <0>         0.0878
     19 H5         -0.5289    1.8773    0.9072 H         1 <0>         0.0577
     20 H6          0.1853   -0.1503   -2.1397 H         1 <0>         0.1009
     21 H7          1.7377   -0.1083   -1.2702 H         1 <0>         0.0517
     22 H8          1.5456   -3.5648   -0.1418 H         1 <0>         0.1003
     23 H9          2.5220   -2.0769   -0.1183 H         1 <0>         0.0522
     24 H10        -0.1958   -2.4515    1.2207 H         1 <0>         0.0987
     25 H11         1.3786   -2.4064    2.0514 H         1 <0>         0.0967
     26 H12        -0.9077   -0.4718    2.4386 H         1 <0>         0.4346
     27 H13         0.5157   -0.4248    3.2672 H         1 <0>         0.4368
     28 H14         0.8108   -2.0077   -3.3538 H         1 <0>         0.0983
     29 H15         2.3826   -2.2539   -2.5554 H         1 <0>         0.0581
     30 H16         1.6203   -4.4671   -1.7373 H         1 <0>         0.1096
     31 H17         0.0486   -4.2209   -2.5356 H         1 <0>         0.1219
     32 H18        -0.0232    0.9177    2.4785 H         1 <0>         0.4347
@<TRIPOS>BOND
     1    1    2 1
     2    1   17 1
     3    1   18 1
     4    1   19 1
     5    2    3 1
     6    2    8 1
     7    2    4 1
     8    4    5 1
     9    4   20 1
    10    4   21 1
    11    5    6 1
    12    5   11 1
    13    6    7 1
    14    6   22 1
    15    6   23 1
    16    7    8 1
    17    7   24 1
    18    7   25 1
    19    8    9 1
    20    8   10 1
    21   10   26 1
    22   10   27 1
    23   10   32 1
    24   11   12 1
    25   11   28 1
    26   11   29 1
    27   12   13 1
    28   12   30 1
    29   12   31 1
    30   13   14 1
    31   13   15 1
    32   13   16 1
@<TRIPOS>MOLECULE
ZINC38626543
   33    35     0     0     0
SMALL
USER_CHARGES

@<TRIPOS>ATOM
      1 C1          0.7503   -0.3886   -1.2759 C.3       1 <0>        -0.1486
      2 C2          0.0021   -0.0041    0.0020 C.3       1 <0>        -0.0602
      3 C3         -0.0148    1.5192    0.1444 C.3       1 <0>        -0.1441
      4 C4         -1.4129   -0.5175   -0.0706 C.2       1 <0>         0.2478
      5 N1         -2.3829    0.3549   -0.1184 N.2       1 <0>        -0.4206
      6 C5         -3.7397   -0.1818   -0.1915 C.3       1 <0>         0.1252
      7 H1         -4.1592   -0.1871    0.8146 H         1 <0>         0.2371
      8 C6         -3.8448   -1.5919   -0.7620 C.2       1 <0>        -0.1107
      9 C7         -4.8980   -1.5087   -1.6043 C.2       1 <0>         0.2935
     10 N2         -5.2664   -0.2084   -1.7465 N.pl3     1 <0>        -0.1952
     11 N3         -4.6237    0.6014   -1.0412 N.2       1 <0>        -0.0322
     12 N4         -5.5079   -2.5831   -2.2271 N.pl3     1 <0>        -0.8152
     13 C8         -2.8188   -2.4730   -0.4033 C.2       1 <0>        -0.0269
     14 C9         -1.6148   -1.9183   -0.0888 C.2       1 <0>        -0.0860
     15 C10        -0.6282   -3.0253    0.2342 C.3       1 <0>        -0.0903
     16 C11        -1.4833   -4.2938    0.4317 C.3       1 <0>        -0.1224
     17 C12        -2.7328   -3.9781   -0.3649 C.3       1 <0>        -0.0865
     18 H2          1.7738   -0.0172   -1.2234 H         1 <0>         0.0820
     19 H3          0.7624   -1.4738   -1.3774 H         1 <0>         0.0644
     20 H4          0.2480    0.0513   -2.1374 H         1 <0>         0.0598
     21 H5          0.5045   -0.4440    0.8635 H         1 <0>         0.1115
     22 H6         -0.5726    1.7943    1.0396 H         1 <0>         0.0646
     23 H7          1.0077    1.8878    0.2259 H         1 <0>         0.0691
     24 H8         -0.4915    1.9607   -0.7307 H         1 <0>         0.0637
     25 H9         -5.1816   -3.4832   -2.0713 H         1 <0>         0.4397
     26 H10        -6.2618   -2.4362   -2.8195 H         1 <0>         0.4227
     27 H11         0.0671   -3.1642   -0.5936 H         1 <0>         0.1054
     28 H12        -0.0844   -2.7907    1.1493 H         1 <0>         0.0995
     29 H13        -0.9670   -5.1747    0.0504 H         1 <0>         0.0987
     30 H14        -1.7502   -4.4241    1.4805 H         1 <0>         0.0830
     31 H15        -3.6271   -4.3968    0.0966 H         1 <0>         0.0953
     32 H16        -2.6034   -4.3758   -1.3715 H         1 <0>         0.0966
     33 H17        -5.9781    0.0715   -2.3432 H         1 <0>         0.4793
@<TRIPOS>BOND
     1    1    2 1
     2    1   18 1
     3    1   19 1
     4    1   20 1
     5    2    3 1
     6    2    4 1
     7    2   21 1
     8    3   22 1
     9    3   23 1
    10    3   24 1
    11    4   14 1
    12    4    5 2
    13    5    6 1
    14    6    7 1
    15    6   11 1
    16    6    8 1
    17    8    9 2
    18    8   13 1
    19    9   10 1
    20    9   12 1
    21   10   11 2
    22   10   33 1
    23   12   25 1
    24   12   26 1
    25   13   17 1
    26   13   14 2
    27   14   15 1
    28   15   16 1
    29   15   27 1
    30   15   28 1
    31   16   17 1
    32   16   29 1
    33   16   30 1
    34   17   31 1
    35   17   32 1
@<TRIPOS>MOLECULE
ZINC44796256
   38    38     0     0     0
SMALL
USER_CHARGES

@<TRIPOS>ATOM
      1 C1          0.2120    1.7760   -0.6133 C.3       1 <0>        -0.1510
      2 C2          0.3663    0.2659   -0.4217 C.3       1 <0>         0.0770
      3 H1         -0.5617   -0.1477   -0.0269 H         1 <0>         0.0626
      4 C3          0.6873   -0.3911   -1.7690 C.3       1 <0>         0.0748
      5 N1          1.0144   -1.8056   -1.5294 N.am      1 <0>        -0.6067
      6 C4          2.0135   -2.1189   -0.4954 C.3       1 <0>         0.0559
      7 C5          1.6279   -1.3778    0.7899 C.3       1 <0>         0.0478
      8 O1          1.4324    0.0073    0.4951 O.3       1 <0>        -0.3661
      9 C6          0.4164   -2.7853   -2.2357 C.2       1 <0>         0.4952
     10 O2         -0.4695   -2.5144   -3.0185 O.2       1 <0>        -0.5153
     11 C7          0.8483   -4.2175   -2.0528 C.3       1 <0>        -0.1377
     12 H2          1.9369   -4.2693   -2.0361 H         1 <0>         0.1439
     13 C8          0.2919   -4.7533   -0.7321 C.3       1 <0>        -0.0084
     14 N2         -1.1757   -4.6973   -0.7604 N.4       1 <0>        -0.6391
     15 C9          0.3151   -5.0629   -3.2112 C.3       1 <0>        -0.0883
     16 C10         0.9347   -4.5784   -4.5236 C.3       1 <0>        -0.1563
     17 C11         0.6844   -6.5302   -2.9839 C.3       1 <0>        -0.1639
     18 H3          1.1404    2.1888   -1.0081 H         1 <0>         0.0718
     19 H4         -0.5997    1.9723   -1.3138 H         1 <0>         0.0795
     20 H5         -0.0144    2.2426    0.3453 H         1 <0>         0.0749
     21 H6         -0.1787   -0.3210   -2.4272 H         1 <0>         0.1091
     22 H7          1.5395    0.1101   -2.2280 H         1 <0>         0.0886
     23 H8          2.0257   -3.1930   -0.3102 H         1 <0>         0.0931
     24 H9          2.9992   -1.7917   -0.8262 H         1 <0>         0.0957
     25 H10         0.7049   -1.7980    1.1895 H         1 <0>         0.0515
     26 H11         2.4256   -1.4845    1.5250 H         1 <0>         0.1171
     27 H12         0.6136   -5.7856   -0.5945 H         1 <0>         0.1560
     28 H13         0.6629   -4.1441    0.0922 H         1 <0>         0.1391
     29 H14        -1.5226   -5.3256   -1.4697 H         1 <0>         0.4385
     30 H15        -1.5402   -4.9719    0.1395 H         1 <0>         0.4417
     31 H16        -0.7692   -4.9650   -3.2634 H         1 <0>         0.0792
     32 H17         2.0190   -4.6763   -4.4713 H         1 <0>         0.0614
     33 H18         0.5548   -5.1807   -5.3488 H         1 <0>         0.0711
     34 H19         0.6716   -3.5331   -4.6855 H         1 <0>         0.0703
     35 H20         1.7573   -6.6120   -2.8097 H         1 <0>         0.0720
     36 H21         0.1454   -6.9103   -2.1162 H         1 <0>         0.0512
     37 H22         0.4137   -7.1135   -3.8640 H         1 <0>         0.0794
     38 H23        -1.4725   -3.7561   -0.9705 H         1 <0>         0.4345
@<TRIPOS>BOND
     1    1    2 1
     2    1   18 1
     3    1   19 1
     4    1   20 1
     5    2    3 1
     6    2    8 1
     7    2    4 1
     8    4    5 1
     9    4   21 1
    10    4   22 1
    11    5    6 1
    12    5    9 am
    13    6    7 1
    14    6   23 1
    15    6   24 1
    16    7    8 1
    17    7   25 1
    18    7   26 1
    19    9   10 2
    20    9   11 1
    21   11   12 1
    22   11   13 1
    23   11   15 1
    24   13   14 1
    25   13   27 1
    26   13   28 1
    27   14   29 1
    28   14   30 1
    29   14   38 1
    30   15   16 1
    31   15   17 1
    32   15   31 1
    33   16   32 1
    34   16   33 1
    35   16   34 1
    36   17   35 1
    37   17   36 1
    38   17   37 1
@<TRIPOS>MOLECULE
ZINC51870396
   32    33     0     0     0
SMALL
USER_CHARGES

@<TRIPOS>ATOM
      1 C1         -0.0169    1.3928    0.0097 C.ar      1 <0>         0.0085
      2 C2          1.1908    2.0802    0.0019 C.ar      1 <0>        -0.1426
      3 C3          2.3728    1.3726   -0.0098 C.ar      1 <0>         0.2101
      4 N1          2.3614    0.0445   -0.0213 N.ar      1 <0>        -0.5392
      5 C4          1.2451   -0.6559   -0.0154 C.ar      1 <0>         0.3601
      6 C5          0.0021   -0.0041    0.0020 C.ar      1 <0>        -0.0893
      7 C6         -1.2182   -0.7534    0.0117 C.1       1 <0>         0.2537
      8 N2         -2.1862   -1.3479    0.0194 N.1       1 <0>        -0.3941
      9 O1          1.2975   -2.0097   -0.0267 O.3       1 <0>        -0.3179
     10 C7          2.5947   -2.6086   -0.0447 C.3       1 <0>         0.0331
     11 C8          2.4530   -4.1320   -0.0553 C.3       1 <0>        -0.0007
     12 N3          1.8120   -4.5555   -1.3074 N.4       1 <0>        -0.6392
     13 C9          3.7185    2.0531   -0.0011 C.3       1 <0>        -0.0763
     14 C10         3.5845    3.5143   -0.4237 C.3       1 <0>        -0.1236
     15 C11         2.4882    4.1665    0.4268 C.3       1 <0>        -0.1261
     16 C12         1.1410    3.5849    0.0028 C.3       1 <0>        -0.0801
     17 H1         -0.9541    1.9292    0.0260 H         1 <0>         0.1594
     18 H2          3.1309   -2.2874   -0.9377 H         1 <0>         0.0969
     19 H3          3.1491   -2.3015    0.8421 H         1 <0>         0.1184
     20 H4          3.4396   -4.5892    0.0206 H         1 <0>         0.1574
     21 H5          1.8411   -4.4459    0.7904 H         1 <0>         0.1449
     22 H6          0.8988   -4.1322   -1.3776 H         1 <0>         0.4406
     23 H7          2.3785   -4.2649   -2.0902 H         1 <0>         0.4359
     24 H8          4.1381    2.0066    1.0038 H         1 <0>         0.0964
     25 H9          4.3857    1.5387   -0.6927 H         1 <0>         0.0925
     26 H10         4.5304    4.0309   -0.2611 H         1 <0>         0.0828
     27 H11         3.3109    3.5673   -1.4775 H         1 <0>         0.0719
     28 H12         2.6652    3.9527    1.4809 H         1 <0>         0.0710
     29 H13         2.4903    5.2444    0.2649 H         1 <0>         0.0805
     30 H14         0.8969    3.9371   -0.9994 H         1 <0>         0.0880
     31 H15         0.3706    3.9186    0.6980 H         1 <0>         0.0862
     32 H16         1.7186   -5.5601   -1.3144 H         1 <0>         0.4411
@<TRIPOS>BOND
     1    1    6 ar
     2    1    2 ar
     3    1   17 1
     4    2   16 1
     5    2    3 ar
     6    3    4 ar
     7    3   13 1
     8    4    5 ar
     9    5    6 ar
    10    5    9 1
    11    6    7 1
    12    7    8 3
    13    9   10 1
    14   10   11 1
    15   10   18 1
    16   10   19 1
    17   11   12 1
    18   11   20 1
    19   11   21 1
    20   12   22 1
    21   12   23 1
    22   12   32 1
    23   13   14 1
    24   13   24 1
    25   13   25 1
    26   14   15 1
    27   14   26 1
    28   14   27 1
    29   15   16 1
    30   15   28 1
    31   15   29 1
    32   16   30 1
    33   16   31 1
@<TRIPOS>MOLECULE
ZINC54788249
   27    28     0     0     0
SMALL
USER_CHARGES

@<TRIPOS>ATOM
      1 C1         -0.0184    1.5028    0.0103 C.3       1 <0>        -0.0946
      2 C2          0.0021   -0.0041    0.0020 C.2       1 <0>         0.0977
      3 C3          0.0080   -0.8179   -1.1355 C.2       1 <0>        -0.3256
      4 C4          0.0279   -2.1072   -0.7249 C.2       1 <0>         0.1204
      5 N1          0.0343   -2.1090    0.6245 N.pl3     1 <0>        -0.4546
      6 H1          0.0479   -2.8941    1.1941 H         1 <0>         0.4543
      7 N2          0.0231   -0.7768    1.0576 N.2       1 <0>        -0.2691
      8 C5         -0.0061   -0.3430   -2.5656 C.3       1 <0>         0.0871
      9 N3          1.3502    0.0592   -2.9614 N.4       1 <0>        -0.5125
     10 C6          1.3364    0.5222   -4.3555 C.3       1 <0>         0.1067
     11 C7          2.7278    0.9348   -4.7615 C.2       1 <0>        -0.3309
     12 C8          3.7203    0.1998   -5.3255 C.2       1 <0>         0.1092
     13 N4          4.8539    0.8223   -5.5800 N.2       1 <0>        -0.5233
     14 C9          5.0119    2.0920   -5.3002 C.2       1 <0>         0.0775
     15 S1          3.5256    2.5278   -4.6415 S.3       1 <0>         0.1691
     16 H2          1.0042    1.8801    0.0026 H         1 <0>         0.0849
     17 H3         -0.5455    1.8639   -0.8728 H         1 <0>         0.0819
     18 H4         -0.5286    1.8543    0.9071 H         1 <0>         0.0913
     19 H5          0.0366   -2.9785   -1.3629 H         1 <0>         0.1911
     20 H6         -0.3493   -1.1499   -3.2131 H         1 <0>         0.1388
     21 H7         -0.6795    0.5090   -2.6589 H         1 <0>         0.1384
     22 H8          1.6679    0.8062   -2.3621 H         1 <0>         0.4251
     23 H9          0.9932   -0.2847   -5.0029 H         1 <0>         0.1524
     24 H10         0.6630    1.3742   -4.4487 H         1 <0>         0.1448
     25 H11         3.5871   -0.8472   -5.5548 H         1 <0>         0.1810
     26 H12         5.8831    2.7104   -5.4580 H         1 <0>         0.2317
     27 H13         1.9735   -0.7295   -2.8751 H         1 <0>         0.4273
@<TRIPOS>BOND
     1    1    2 1
     2    1   16 1
     3    1   17 1
     4    1   18 1
     5    2    7 2
     6    2    3 1
     7    3    4 2
     8    3    8 1
     9    4    5 1
    10    4   19 1
    11    5    6 1
    12    5    7 1
    13    8    9 1
    14    8   20 1
    15    8   21 1
    16    9   10 1
    17    9   22 1
    18    9   27 1
    19   10   11 1
    20   10   23 1
    21   10   24 1
    22   11   15 1
    23   11   12 2
    24   12   13 1
    25   12   25 1
    26   13   14 2
    27   14   15 1
    28   14   26 1
@<TRIPOS>MOLECULE
ZINC63093308
   35    35     0     0     0
SMALL
USER_CHARGES

@<TRIPOS>ATOM
      1 C1         -0.1920    1.1884    0.6031 C.3       1 <0>        -0.1661
      2 C2         -0.1920   -0.3342    0.4523 C.3       1 <0>         0.1392
      3 H1         -1.2149   -0.6860    0.3180 H         1 <0>         0.1198
      4 C3          0.4055   -0.9711    1.7085 C.3       1 <0>        -0.0423
      5 C4          0.2962   -2.4361    1.6154 C.1       1 <0>         0.1928
      6 N1          0.2118   -3.5666    1.5435 N.1       1 <0>        -0.4185
      7 N2          0.6105   -0.7093   -0.7145 N.am      1 <0>        -0.6107
      8 C5          2.0289   -0.3477   -0.7748 C.3       1 <0>         0.0226
      9 C6          0.0440   -1.3871   -1.7324 C.2       1 <0>         0.5096
     10 O1         -1.1491   -1.6048   -1.7264 O.2       1 <0>        -0.4657
     11 C7          0.8931   -1.8747   -2.8780 C.3       1 <0>         0.0300
     12 C8          1.3397   -0.6866   -3.7657 C.3       1 <0>        -0.1383
     13 C9          0.0949   -0.4358   -4.6527 C.3       1 <0>        -0.1229
     14 C10        -0.4456   -1.8489   -4.9543 C.3       1 <0>        -0.1227
     15 C11         0.0619   -2.7637   -3.8259 C.3       1 <0>        -0.1263
     16 N3          2.0603   -2.6108   -2.3743 N.4       1 <0>        -0.6337
     17 H2          0.8309    1.5402    0.7374 H         1 <0>         0.0695
     18 H3         -0.6178    1.6421   -0.2919 H         1 <0>         0.0724
     19 H4         -0.7892    1.4675    1.4712 H         1 <0>         0.0877
     20 H5          1.4551   -0.6898    1.7943 H         1 <0>         0.1166
     21 H6         -0.1373   -0.6213    2.5866 H         1 <0>         0.1351
     22 H7          2.6276   -1.1527   -0.3485 H         1 <0>         0.0665
     23 H8          2.3197   -0.1895   -1.8134 H         1 <0>         0.0851
     24 H9          2.1949    0.5681   -0.2075 H         1 <0>         0.1169
     25 H10         1.5622    0.1891   -3.1559 H         1 <0>         0.1049
     26 H11         2.1997   -0.9622   -4.3760 H         1 <0>         0.1088
     27 H12        -0.6482    0.1492   -4.1107 H         1 <0>         0.0823
     28 H13         0.3797    0.0688   -5.5759 H         1 <0>         0.0960
     29 H14        -1.5355   -1.8375   -4.9640 H         1 <0>         0.0887
     30 H15        -0.0668   -2.1962   -5.9155 H         1 <0>         0.0858
     31 H16         0.6870   -3.5551   -4.2395 H         1 <0>         0.0958
     32 H17        -0.7817   -3.1964   -3.2881 H         1 <0>         0.1113
     33 H18         1.7573   -3.3095   -1.7124 H         1 <0>         0.4382
     34 H19         2.5328   -3.0597   -3.1446 H         1 <0>         0.4418
     35 H20         2.6924   -1.9689   -1.9201 H         1 <0>         0.4299
@<TRIPOS>BOND
     1    1    2 1
     2    1   17 1
     3    1   18 1
     4    1   19 1
     5    2    3 1
     6    2    4 1
     7    2    7 1
     8    4    5 1
     9    4   20 1
    10    4   21 1
    11    5    6 3
    12    7    8 1
    13    7    9 am
    14    8   22 1
    15    8   23 1
    16    8   24 1
    17    9   10 2
    18    9   11 1
    19   11   15 1
    20   11   12 1
    21   11   16 1
    22   12   13 1
    23   12   25 1
    24   12   26 1
    25   13   14 1
    26   13   27 1
    27   13   28 1
    28   14   15 1
    29   14   29 1
    30   14   30 1
    31   15   31 1
    32   15   32 1
    33   16   33 1
    34   16   34 1
    35   16   35 1
@<TRIPOS>MOLECULE
ZINC19930524
   44    46     0     0     0
SMALL
USER_CHARGES
(2R)-1-[2-[(R)-amino-(3,6-dichloro-2-methoxy-phenyl)methyl]benzimidazol-1-yl]propan-2-ol
@<TRIPOS>ATOM
      1 C1         -2.0993   -1.9799   -3.7947 C.3       1 <0>        -0.1465
      2 C2         -2.0782   -0.5361   -3.2889 C.3       1 <0>         0.0979
      3 H1         -2.7538    0.1024   -3.8769 H         1 <0>         0.0587
      4 C3         -0.6437   -0.0050   -3.3223 C.3       1 <0>         0.0652
      5 N1         -0.6391    1.4125   -2.9523 N.pl3     1 <0>        -0.4830
      6 C4         -0.8710    2.4795   -3.7970 C.ar      1 <0>         0.0487
      7 C5         -1.1596    2.5965   -5.1500 C.ar      1 <0>        -0.1129
      8 C6         -1.3335    3.8462   -5.7055 C.ar      1 <0>        -0.0988
      9 C7         -1.2219    4.9859   -4.9216 C.ar      1 <0>        -0.1295
     10 C8         -0.9381    4.8901   -3.5889 C.ar      1 <0>        -0.0591
     11 C9         -0.7582    3.6338   -3.0039 C.ar      1 <0>         0.0458
     12 N2         -0.4751    3.2203   -1.7419 N.2       1 <0>        -0.4517
     13 C10        -0.4089    1.9213   -1.7118 C.2       1 <0>         0.2863
     14 C11        -0.1139    1.1001   -0.4830 C.3       1 <0>         0.2021
     15 H2         -0.3099    0.0362   -0.6820 H         1 <0>         0.1204
     16 C12         1.3252    1.2966   -0.0811 C.ar      1 <0>        -0.1271
     17 C13         2.2498    0.2929   -0.3061 C.ar      1 <0>        -0.0119
     18 C14         3.5710    0.4727    0.0627 C.ar      1 <0>        -0.1029
     19 C15         3.9703    1.6556    0.6573 C.ar      1 <0>        -0.0791
     20 C16         3.0501    2.6617    0.8837 C.ar      1 <0>        -0.0587
     21 C17         1.7245    2.4858    0.5092 C.ar      1 <0>         0.1411
     22 O1          0.8188    3.4759    0.7262 O.3       1 <0>        -0.2941
     23 C18         0.2669    3.5736    2.0407 C.3       1 <0>         0.0042
     24 Cl1         3.5524    4.1466    1.6297 Cl        1 <0>        -0.0390
     25 Cl2         1.7522   -1.1934   -1.0522 Cl        1 <0>        -0.0467
     26 N3         -0.9916    1.5283    0.6144 N.3       1 <0>        -0.8248
     27 O2         -2.5707   -0.4937   -1.9482 O.3       1 <0>        -0.5907
     28 H3         -3.1306   -2.3618   -3.7707 H         1 <0>         0.0733
     29 H4         -1.4623   -2.6035   -3.1502 H         1 <0>         0.0665
     30 H5         -1.7202   -2.0124   -4.8268 H         1 <0>         0.0750
     31 H6         -0.0262   -0.5719   -2.6101 H         1 <0>         0.1046
     32 H7         -0.2334   -0.1206   -4.3363 H         1 <0>         0.0978
     33 H8         -1.2471    1.7127   -5.7645 H         1 <0>         0.1197
     34 H9         -1.5583    3.9388   -6.7577 H         1 <0>         0.1298
     35 H10        -1.3606    5.9586   -5.3700 H         1 <0>         0.1294
     36 H11        -0.8539    5.7836   -2.9881 H         1 <0>         0.1292
     37 H12         4.2916   -0.3121   -0.1137 H         1 <0>         0.1506
     38 H13         5.0022    1.7935    0.9446 H         1 <0>         0.1517
     39 H14        -0.4462    4.4104    2.0777 H         1 <0>         0.1142
     40 H15         1.0754    3.7485    2.7657 H         1 <0>         0.0580
     41 H16        -0.2534    2.6371    2.2904 H         1 <0>         0.0596
     42 H17        -0.7763    0.9289    1.5113 H         1 <0>         0.3467
     43 H18        -0.8137    2.5917    0.8326 H         1 <0>         0.3701
     44 H19        -2.6302    0.4662   -1.4142 H         1 <0>         0.4101
@<TRIPOS>BOND
     1    1    2 1
     2    1   28 1
     3    1   29 1
     4    1   30 1
     5    2    3 1
     6    2    4 1
     7    2   27 1
     8    4    5 1
     9    4   31 1
    10    4   32 1
    11    5   13 1
    12    5    6 1
    13    6   11 ar
    14    6    7 ar
    15    7    8 ar
    16    7   33 1
    17    8    9 ar
    18    8   34 1
    19    9   10 ar
    20    9   35 1
    21   10   11 ar
    22   10   36 1
    23   11   12 1
    24   12   13 2
    25   13   14 1
    26   14   15 1
    27   14   16 1
    28   14   26 1
    29   16   21 ar
    30   16   17 ar
    31   17   18 ar
    32   17   25 1
    33   18   19 ar
    34   18   37 1
    35   19   20 ar
    36   19   38 1
    37   20   21 ar
    38   20   24 1
    39   21   22 1
    40   22   23 1
    41   23   39 1
    42   23   40 1
    43   23   41 1
    44   26   42 1
    45   26   43 1
    46   27   44 1
@<TRIPOS>MOLECULE
ZINC39160031
   56    59     0     0     0
SMALL
USER_CHARGES

@<TRIPOS>ATOM
      1 C1         -0.0184    1.5028    0.0103 C.3       1 <0>        -0.1171
      2 C2          0.0021   -0.0041    0.0020 C.ar      1 <0>        -0.0840
      3 C3          0.0057   -0.6887   -1.1989 C.ar      1 <0>        -0.1241
      4 C4          0.0245   -2.0709   -1.2065 C.ar      1 <0>        -0.0967
      5 C5          0.0400   -2.7685   -0.0132 C.ar      1 <0>        -0.0886
      6 C6          0.0373   -2.0839    1.1877 C.ar      1 <0>        -0.0990
      7 C7          0.0229   -0.7016    1.1953 C.ar      1 <0>        -0.1239
      8 C8          0.0595   -4.2753   -0.0215 C.3       1 <0>         0.0918
      9 N1          1.4506   -4.7470   -0.0318 N.3       1 <0>        -0.3658
     10 C9          1.5092   -6.2255   -0.0914 C.3       1 <0>         0.0556
     11 H1          0.6046   -6.6555    0.3385 H         1 <0>         0.0666
     12 C10         2.7403   -6.6298    0.7448 C.3       1 <0>         0.1479
     13 H2          3.4749   -7.1375    0.1197 H         1 <0>         0.1029
     14 C11         3.3097   -5.2913    1.2676 C.3       1 <0>         0.0523
     15 H3          4.1117   -4.9364    0.6203 H         1 <0>         0.0633
     16 N2          2.1430   -4.3714    1.2080 N.3       1 <0>        -0.5160
     17 C12         3.8077   -5.4428    2.7063 C.3       1 <0>        -0.1326
     18 N3          2.3399   -7.4890    1.8618 N.am      1 <0>        -0.7227
     19 C13         3.2268   -8.3475    2.4031 C.2       1 <0>         0.5155
     20 O1          4.3562   -8.4087    1.9656 O.2       1 <0>        -0.5226
     21 C14         2.8149   -9.2314    3.5521 C.3       1 <0>        -0.0635
     22 C15         3.9813  -10.0899    3.9687 C.2       1 <0>        -0.1575
     23 C16         5.0523   -9.7149    4.8951 C.ar      1 <0>        -0.0889
     24 C17         5.3381   -8.5654    5.6336 C.ar      1 <0>        -0.0698
     25 C18         6.4483   -8.5290    6.4297 C.ar      1 <0>        -0.1452
     26 C19         7.2947   -9.6260    6.5097 C.ar      1 <0>        -0.1001
     27 C20         7.0315  -10.7707    5.7893 C.ar      1 <0>        -0.1301
     28 C21         5.9069  -10.8299    4.9730 C.ar      1 <0>         0.0953
     29 N4          5.3824  -11.8018    4.1507 N.pl3     1 <0>        -0.5939
     30 C22         4.2328  -11.3454    3.5656 C.2       1 <0>         0.0669
     31 C23         1.6771   -6.6893   -1.5397 C.3       1 <0>        -0.1347
     32 H4          1.0042    1.8801    0.0026 H         1 <0>         0.0703
     33 H5         -0.5455    1.8639   -0.8728 H         1 <0>         0.0659
     34 H6         -0.5286    1.8543    0.9071 H         1 <0>         0.0660
     35 H7         -0.0064   -0.1436   -2.1312 H         1 <0>         0.1202
     36 H8          0.0266   -2.6057   -2.1448 H         1 <0>         0.1205
     37 H9          0.0491   -2.6289    2.1200 H         1 <0>         0.1231
     38 H10         0.0245   -0.1667    2.1335 H         1 <0>         0.1202
     39 H11        -0.4447   -4.6501    0.8693 H         1 <0>         0.0538
     40 H12        -0.4546   -4.6404   -0.9106 H         1 <0>         0.0868
     41 H13         2.4430   -3.4085    1.1771 H         1 <0>         0.3499
     42 H14         4.5929   -6.1980    2.7413 H         1 <0>         0.0712
     43 H15         4.2046   -4.4896    3.0557 H         1 <0>         0.0531
     44 H16         2.9805   -5.7487    3.3468 H         1 <0>         0.0616
     45 H17         1.4366   -7.4401    2.2118 H         1 <0>         0.3999
     46 H18         2.5011   -8.6122    4.3925 H         1 <0>         0.0998
     47 H19         1.9871   -9.8689    3.2415 H         1 <0>         0.0992
     48 H20         4.6844   -7.7076    5.5758 H         1 <0>         0.1167
     49 H21         6.6690   -7.6394    7.0009 H         1 <0>         0.1212
     50 H22         8.1686   -9.5819    7.1427 H         1 <0>         0.1244
     51 H23         7.6964  -11.6190    5.8580 H         1 <0>         0.1189
     52 H24         3.6200  -11.9105    2.8789 H         1 <0>         0.1679
     53 H25         5.7682  -12.6807    4.0103 H         1 <0>         0.4164
     54 H26         2.5873   -6.2580   -1.9562 H         1 <0>         0.0654
     55 H27         1.7447   -7.7769   -1.5674 H         1 <0>         0.0642
     56 H28         0.8187   -6.3636   -2.1273 H         1 <0>         0.0618
@<TRIPOS>BOND
     1    1    2 1
     2    1   32 1
     3    1   33 1
     4    1   34 1
     5    2    7 ar
     6    2    3 ar
     7    3    4 ar
     8    3   35 1
     9    4    5 ar
    10    4   36 1
    11    5    6 ar
    12    5    8 1
    13    6    7 ar
    14    6   37 1
    15    7   38 1
    16    8    9 1
    17    8   39 1
    18    8   40 1
    19    9   16 1
    20    9   10 1
    21   10   11 1
    22   10   12 1
    23   10   31 1
    24   12   13 1
    25   12   14 1
    26   12   18 1
    27   14   15 1
    28   14   16 1
    29   14   17 1
    30   16   41 1
    31   17   42 1
    32   17   43 1
    33   17   44 1
    34   18   19 am
    35   18   45 1
    36   19   20 2
    37   19   21 1
    38   21   46 1
    39   21   47 1
    40   21   22 1
    41   22   23 1
    42   22   30 2
    43   23   24 ar
    44   23   28 ar
    45   24   25 ar
    46   24   48 1
    47   25   26 ar
    48   25   49 1
    49   26   27 ar
    50   26   50 1
    51   27   28 ar
    52   27   51 1
    53   28   29 1
    54   29   53 1
    55   29   30 1
    56   30   52 1
    57   31   54 1
    58   31   55 1
    59   31   56 1
@<TRIPOS>MOLECULE
ZINC55047398
   38    39     0     0     0
SMALL
USER_CHARGES

@<TRIPOS>ATOM
      1 C1         -0.0414    1.5024    0.0137 C.3       1 <0>        -0.1158
      2 C2         -0.0148   -0.0043    0.0045 C.ar      1 <0>        -0.1001
      3 C3         -0.7519   -0.7018   -0.9353 C.ar      1 <0>        -0.0969
      4 C4         -0.7297   -2.0824   -0.9463 C.ar      1 <0>        -0.1217
      5 C5          0.0343   -2.7707   -0.0127 C.ar      1 <0>         0.1441
      6 C6          0.7735   -2.0676    0.9292 C.ar      1 <0>        -0.1412
      7 C7          0.7508   -0.6864    0.9319 C.ar      1 <0>        -0.0676
      8 C8          1.5573    0.0776    1.9502 C.3       1 <0>        -0.1166
      9 N1          0.0586   -4.1697   -0.0209 N.am      1 <0>        -0.6701
     10 C9         -0.0404   -4.8386   -1.1868 C.2       1 <0>         0.5170
     11 O1         -0.0541   -4.2300   -2.2358 O.2       1 <0>        -0.5005
     12 C10        -0.1340   -6.3427   -1.1871 C.3       1 <0>         0.0660
     13 O2         -0.2295   -6.8138   -2.5328 O.3       1 <0>        -0.2174
     14 N2         -0.3227   -8.2223   -2.6447 N.2       1 <0>        -0.4169
     15 C11        -0.4151   -8.7783   -3.8207 C.2       1 <0>         0.4655
     16 C12        -0.5119  -10.2425   -3.9371 C.2       1 <0>        -0.1275
     17 C13        -0.6099  -11.0155   -5.0665 C.2       1 <0>        -0.0977
     18 C14        -0.6890  -12.3816   -4.9275 C.2       1 <0>        -0.1316
     19 C15        -0.6677  -12.9231   -3.6801 C.2       1 <0>        -0.1382
     20 S1         -0.5245  -11.4753   -2.6456 S.3       1 <0>         0.1867
     21 Br1        -0.8261  -13.4928   -6.4515 Br        1 <0>        -0.0257
     22 N3         -0.4222   -7.9904   -4.9612 N.pl3     1 <0>        -0.8576
     23 H1          0.7511    1.8837   -0.6304 H         1 <0>         0.0702
     24 H2         -1.0069    1.8510   -0.3530 H         1 <0>         0.0663
     25 H3          0.1125    1.8623    1.0310 H         1 <0>         0.0687
     26 H4         -1.3458   -0.1660   -1.6610 H         1 <0>         0.1262
     27 H5         -1.3060   -2.6265   -1.6800 H         1 <0>         0.1333
     28 H6          1.3685   -2.5999    1.6565 H         1 <0>         0.1260
     29 H7          0.9529    0.2438    2.8419 H         1 <0>         0.0723
     30 H8          2.4455   -0.4961    2.2149 H         1 <0>         0.0665
     31 H9          1.8569    1.0378    1.5301 H         1 <0>         0.0709
     32 H10         0.1466   -4.6582    0.8125 H         1 <0>         0.4130
     33 H11         0.7558   -6.7622   -0.7176 H         1 <0>         0.0897
     34 H12        -1.0186   -6.6518   -0.6303 H         1 <0>         0.0911
     35 H13        -0.6251  -10.5601   -6.0457 H         1 <0>         0.1480
     36 H14        -0.7200  -13.9622   -3.3901 H         1 <0>         0.2037
     37 H15        -0.3584   -7.0255   -4.8846 H         1 <0>         0.4177
     38 H16        -0.4910   -8.4039   -5.8360 H         1 <0>         0.4006
@<TRIPOS>BOND
     1    1    2 1
     2    1   23 1
     3    1   24 1
     4    1   25 1
     5    2    7 ar
     6    2    3 ar
     7    3    4 ar
     8    3   26 1
     9    4    5 ar
    10    4   27 1
    11    5    6 ar
    12    5    9 1
    13    6    7 ar
    14    6   28 1
    15    7    8 1
    16    8   29 1
    17    8   30 1
    18    8   31 1
    19    9   10 am
    20    9   32 1
    21   10   11 2
    22   10   12 1
    23   12   13 1
    24   12   33 1
    25   12   34 1
    26   13   14 1
    27   14   15 2
    28   15   16 1
    29   15   22 1
    30   16   20 1
    31   16   17 2
    32   17   18 1
    33   17   35 1
    34   18   19 2
    35   18   21 1
    36   19   20 1
    37   19   36 1
    38   22   37 1
    39   22   38 1
@<TRIPOS>MOLECULE
ZINC57824930
   44    45     0     0     0
SMALL
USER_CHARGES

@<TRIPOS>ATOM
      1 C1         -0.0167    1.3781    0.0096 C.ar      1 <0>        -0.1014
      2 C2          1.1709    2.0855    0.0021 C.ar      1 <0>        -0.1161
      3 C3          2.3773    1.4107   -0.0130 C.ar      1 <0>        -0.0859
      4 C4          2.3960    0.0285   -0.0201 C.ar      1 <0>        -0.1198
      5 C5          1.2084   -0.6789   -0.0117 C.ar      1 <0>        -0.0969
      6 C6          0.0021   -0.0041    0.0020 C.ar      1 <0>        -0.1162
      7 C7          3.7112   -0.7071   -0.0376 C.3       1 <0>         0.1765
      8 C8          4.0489   -1.1818    1.3772 C.3       1 <0>         0.4385
      9 F1          3.0415   -2.0381    1.8346 F         1 <0>        -0.1808
     10 F2          5.2697   -1.8647    1.3610 F         1 <0>        -0.1685
     11 F3          4.1440   -0.0765    2.2296 F         1 <0>        -0.1758
     12 N1          3.6115   -1.8645   -0.9302 N.am      1 <0>        -0.7343
     13 C9          4.7211   -2.3705   -1.5040 C.2       1 <0>         0.7093
     14 O1          5.8048   -1.8664   -1.2808 O.2       1 <0>        -0.5687
     15 N2          4.6294   -3.4353   -2.3252 N.am      1 <0>        -0.7374
     16 C10         5.8355   -3.9853   -2.9489 C.3       1 <0>         0.1275
     17 C11         5.4564   -5.1800   -3.8263 C.3       1 <0>         0.1092
     18 N3          6.6625   -5.7300   -4.4500 N.am      1 <0>        -0.7234
     19 C12         6.5708   -6.7948   -5.2712 C.2       1 <0>         0.5621
     20 O2          5.4872   -7.2988   -5.4944 O.2       1 <0>        -0.5189
     21 C13         7.7867   -7.3493   -5.9000 C.ar      1 <0>        -0.1781
     22 C14         9.0340   -6.7766   -5.6415 C.ar      1 <0>        -0.0577
     23 C15        10.1651   -7.2993   -6.2313 C.ar      1 <0>        -0.1382
     24 C16        10.0685   -8.3896   -7.0792 C.ar      1 <0>        -0.0601
     25 C17         8.8388   -8.9631   -7.3416 C.ar      1 <0>        -0.1641
     26 C18         7.6956   -8.4538   -6.7525 C.ar      1 <0>         0.1614
     27 F4          6.4942   -9.0180   -7.0048 F         1 <0>        -0.1138
     28 H1         -0.9591    1.9053    0.0259 H         1 <0>         0.1286
     29 H2          1.1563    3.1654    0.0076 H         1 <0>         0.1310
     30 H3          3.3051    1.9634   -0.0196 H         1 <0>         0.1309
     31 H4          1.2231   -1.7588   -0.0176 H         1 <0>         0.1248
     32 H5         -0.9258   -0.5567    0.0082 H         1 <0>         0.1297
     33 H6          4.4960   -0.0399   -0.3940 H         1 <0>         0.1397
     34 H7          2.7469   -2.2666   -1.1082 H         1 <0>         0.4070
     35 H8          3.7648   -3.8374   -2.5032 H         1 <0>         0.4020
     36 H9          6.3086   -3.2191   -3.5630 H         1 <0>         0.0781
     37 H10         6.5298   -4.3096   -2.1737 H         1 <0>         0.0783
     38 H11         4.9832   -5.9462   -3.2122 H         1 <0>         0.0789
     39 H12         4.7621   -4.8557   -4.6015 H         1 <0>         0.0789
     40 H13         7.5270   -5.3279   -4.2720 H         1 <0>         0.4034
     41 H14         9.1122   -5.9256   -4.9811 H         1 <0>         0.1363
     42 H15        11.1297   -6.8566   -6.0315 H         1 <0>         0.1387
     43 H16        10.9587   -8.7938   -7.5381 H         1 <0>         0.1404
     44 H17         8.7708   -9.8129   -8.0046 H         1 <0>         0.1449
@<TRIPOS>BOND
     1    1    6 ar
     2    1    2 ar
     3    1   28 1
     4    2    3 ar
     5    2   29 1
     6    3    4 ar
     7    3   30 1
     8    4    5 ar
     9    4    7 1
    10    5    6 ar
    11    5   31 1
    12    6   32 1
    13    7    8 1
    14    7   12 1
    15    7   33 1
    16    8    9 1
    17    8   10 1
    18    8   11 1
    19   12   13 am
    20   12   34 1
    21   13   14 2
    22   13   15 am
    23   15   16 1
    24   15   35 1
    25   16   17 1
    26   16   36 1
    27   16   37 1
    28   17   18 1
    29   17   38 1
    30   17   39 1
    31   18   19 am
    32   18   40 1
    33   19   20 2
    34   19   21 1
    35   21   26 ar
    36   21   22 ar
    37   22   23 ar
    38   22   41 1
    39   23   24 ar
    40   23   42 1
    41   24   25 ar
    42   24   43 1
    43   25   26 ar
    44   25   44 1
    45   26   27 1
@<TRIPOS>MOLECULE
ZINC66953820
   53    55     0     0     0
SMALL
USER_CHARGES

@<TRIPOS>ATOM
      1 C1          0.6850    2.7599   -1.0938 C.3       1 <0>        -0.1532
      2 C2          0.4567    1.3773   -0.4798 C.3       1 <0>        -0.0705
      3 H1         -0.5858    1.2821   -0.1763 H         1 <0>         0.1040
      4 C3          1.3614    1.2063    0.7422 C.3       1 <0>        -0.0056
      5 C4          1.0569   -0.0734    1.4029 C.1       1 <0>         0.1959
      6 N1          0.8219   -1.0610    1.9127 N.1       1 <0>        -0.4151
      7 S1          0.8486    0.0990   -1.7059 S.3       1 <0>        -0.1232
      8 C5         -0.4456    0.2366   -2.8936 C.ar      1 <0>        -0.1199
      9 C6         -1.5136    1.0923   -2.6634 C.ar      1 <0>        -0.1104
     10 C7         -2.5272    1.1987   -3.5968 C.ar      1 <0>        -0.1237
     11 C8         -2.4814    0.4541   -4.7613 C.ar      1 <0>        -0.0972
     12 C9         -1.4214   -0.4013   -4.9987 C.ar      1 <0>        -0.1218
     13 C10        -0.3969   -0.5100   -4.0710 C.ar      1 <0>         0.1930
     14 N2          0.6819   -1.3721   -4.3128 N.am      1 <0>        -0.6770
     15 C11         0.9643   -1.7615   -5.5718 C.2       1 <0>         0.7064
     16 O1          0.3475   -1.2890   -6.5071 O.2       1 <0>        -0.5683
     17 N3          1.9303   -2.6747   -5.7940 N.am      1 <0>        -0.7321
     18 C12         2.2372   -3.0980   -7.1625 C.3       1 <0>         0.1141
     19 C13         3.2711   -4.2253   -7.1279 C.3       1 <0>         0.1711
     20 C14         2.7179   -5.3911   -6.3107 C.3       1 <0>        -0.1059
     21 C15         3.6665   -6.5853   -6.4682 C.3       1 <0>        -0.1178
     22 C16         3.5461   -7.1105   -7.8974 C.3       1 <0>        -0.0868
     23 C17         3.7058   -5.9881   -8.8892 C.ar      1 <0>        -0.0526
     24 C18         3.5757   -4.6633   -8.5366 C.ar      1 <0>        -0.1119
     25 C19         3.7289   -3.6767   -9.5017 C.ar      1 <0>        -0.1133
     26 C20         4.0136   -4.0129  -10.8092 C.ar      1 <0>        -0.1228
     27 C21         4.1481   -5.3424  -11.1623 C.ar      1 <0>        -0.1078
     28 C22         3.9943   -6.3244  -10.2053 C.ar      1 <0>        -0.1243
     29 O2          4.4693   -3.7469   -6.5136 O.3       1 <0>        -0.5461
     30 H2          1.7459    2.8927   -1.3059 H         1 <0>         0.0762
     31 H3          0.1160    2.8448   -2.0197 H         1 <0>         0.0715
     32 H4          0.3557    3.5274   -0.3934 H         1 <0>         0.0749
     33 H5          2.4044    1.2127    0.4258 H         1 <0>         0.1196
     34 H6          1.1883    2.0256    1.4399 H         1 <0>         0.1299
     35 H7         -1.5528    1.6747   -1.7547 H         1 <0>         0.1283
     36 H8         -3.3577    1.8651   -3.4162 H         1 <0>         0.1268
     37 H9         -3.2762    0.5408   -5.4873 H         1 <0>         0.1290
     38 H10        -1.3894   -0.9817   -5.9089 H         1 <0>         0.1592
     39 H11         1.2251   -1.6882   -3.5740 H         1 <0>         0.4086
     40 H12         2.4222   -3.0517   -5.0479 H         1 <0>         0.4032
     41 H13         1.3272   -3.4543   -7.6454 H         1 <0>         0.0832
     42 H14         2.6390   -2.2536   -7.7226 H         1 <0>         0.0736
     43 H15         2.6570   -5.1067   -5.2602 H         1 <0>         0.0755
     44 H16         1.7268   -5.6586   -6.6771 H         1 <0>         0.0815
     45 H17         4.6918   -6.2672   -6.2791 H         1 <0>         0.0766
     46 H18         3.3892   -7.3698   -5.7641 H         1 <0>         0.0716
     47 H19         4.3203   -7.8576   -8.0722 H         1 <0>         0.0783
     48 H20         2.5669   -7.5707   -8.0299 H         1 <0>         0.0791
     49 H21         3.6239   -2.6376   -9.2267 H         1 <0>         0.1232
     50 H22         4.1314   -3.2399  -11.5542 H         1 <0>         0.1249
     51 H23         4.3723   -5.6118  -12.1839 H         1 <0>         0.1246
     52 H24         4.0993   -7.3630  -10.4820 H         1 <0>         0.1238
     53 H25         4.8751   -2.9989   -6.9729 H         1 <0>         0.3795
@<TRIPOS>BOND
     1    1    2 1
     2    1   30 1
     3    1   31 1
     4    1   32 1
     5    2    3 1
     6    2    4 1
     7    2    7 1
     8    4    5 1
     9    4   33 1
    10    4   34 1
    11    5    6 3
    12    7    8 1
    13    8   13 ar
    14    8    9 ar
    15    9   10 ar
    16    9   35 1
    17   10   11 ar
    18   10   36 1
    19   11   12 ar
    20   11   37 1
    21   12   13 ar
    22   12   38 1
    23   13   14 1
    24   14   15 am
    25   14   39 1
    26   15   16 2
    27   15   17 am
    28   17   18 1
    29   17   40 1
    30   18   19 1
    31   18   41 1
    32   18   42 1
    33   19   24 1
    34   19   20 1
    35   19   29 1
    36   20   21 1
    37   20   43 1
    38   20   44 1
    39   21   22 1
    40   21   45 1
    41   21   46 1
    42   22   23 1
    43   22   47 1
    44   22   48 1
    45   23   28 ar
    46   23   24 ar
    47   24   25 ar
    48   25   26 ar
    49   25   49 1
    50   26   27 ar
    51   26   50 1
    52   27   28 ar
    53   27   51 1
    54   28   52 1
    55   29   53 1
@<TRIPOS>MOLECULE
ZINC37258588
   32    32     0     0     0
SMALL
USER_CHARGES

@<TRIPOS>ATOM
      1 C1         -0.0188    1.5345    0.0105 C.3       1 <0>        -0.1272
      2 C2          1.4534    1.9953   -0.0011 C.3       1 <0>        -0.1287
      3 C3          2.2325    0.7924    0.5864 C.3       1 <0>        -0.1134
      4 C4          1.4862   -0.4246   -0.0144 C.3       1 <0>        -0.1248
      5 C5          0.0021   -0.0041    0.0020 C.3       1 <0>        -0.1399
      6 C6          1.7006   -1.6661    0.8536 C.3       1 <0>        -0.0014
      7 N1          1.0854   -2.8307    0.2030 N.4       1 <0>        -0.4989
      8 C7          1.2912   -4.0227    1.0365 C.3       1 <0>        -0.0267
      9 C8          0.6601   -5.2174    0.3691 C.2       1 <0>         0.5084
     10 O1          0.0946   -5.0885   -0.6956 O.2       1 <0>        -0.4531
     11 N2          0.7241   -6.4291    0.9557 N.am      1 <0>        -0.6768
     12 C9          0.1597   -7.4975    0.3589 C.2       1 <0>         0.6964
     13 O2         -0.4072   -7.3683   -0.7084 O.2       1 <0>        -0.5201
     14 N3          0.2237   -8.7092    0.9455 N.am      1 <0>        -0.8449
     15 H1         -0.5162    1.8962    0.9104 H         1 <0>         0.0726
     16 H2         -0.5332    1.9058   -0.8758 H         1 <0>         0.0734
     17 H3          1.7808    2.2008   -1.0203 H         1 <0>         0.0735
     18 H4          1.5822    2.8767    0.6270 H         1 <0>         0.0781
     19 H5          3.2720    0.8083    0.2589 H         1 <0>         0.0810
     20 H6          2.1693    0.7856    1.6746 H         1 <0>         0.0794
     21 H7          1.8189   -0.6099   -1.0357 H         1 <0>         0.1023
     22 H8         -0.4852   -0.3890    0.8978 H         1 <0>         0.0715
     23 H9         -0.5022   -0.3794   -0.8884 H         1 <0>         0.0755
     24 H10         2.7691   -1.8421    0.9785 H         1 <0>         0.1381
     25 H11         1.2415   -1.5106    1.8299 H         1 <0>         0.1370
     26 H12         0.0963   -2.6678    0.0875 H         1 <0>         0.4359
     27 H13         2.3597   -4.1986    1.1613 H         1 <0>         0.1701
     28 H14         0.8321   -3.8672    2.0127 H         1 <0>         0.1694
     29 H15         1.1765   -6.5322    1.8076 H         1 <0>         0.4203
     30 H16         0.6761   -8.8123    1.7974 H         1 <0>         0.4054
     31 H17        -0.1825   -9.4781    0.5160 H         1 <0>         0.4305
     32 H18         1.5104   -2.9746   -0.7007 H         1 <0>         0.4370
@<TRIPOS>BOND
     1    1    5 1
     2    1    2 1
     3    1   15 1
     4    1   16 1
     5    2    3 1
     6    2   17 1
     7    2   18 1
     8    3    4 1
     9    3   19 1
    10    3   20 1
    11    4    5 1
    12    4    6 1
    13    4   21 1
    14    5   22 1
    15    5   23 1
    16    6    7 1
    17    6   24 1
    18    6   25 1
    19    7    8 1
    20    7   26 1
    21    7   32 1
    22    8    9 1
    23    8   27 1
    24    8   28 1
    25    9   10 2
    26    9   11 am
    27   11   12 am
    28   11   29 1
    29   12   13 2
    30   12   14 am
    31   14   30 1
    32   14   31 1
@<TRIPOS>MOLECULE
ZINC43497505
   27    28     0     0     0
SMALL
USER_CHARGES

@<TRIPOS>ATOM
      1 C1         -0.0188    1.5357    0.0105 C.3       1 <0>        -0.1454
      2 C2          1.4678    1.9597   -0.0014 C.3       1 <0>        -0.1347
      3 C3          2.1905    0.7049    0.5496 C.3       1 <0>         0.0531
      4 H1          2.1355    0.6761    1.6379 H         1 <0>         0.1578
      5 N1          1.4211   -0.4185   -0.0440 N.4       1 <0>        -0.5196
      6 C4          0.0021   -0.0041    0.0020 C.3       1 <0>        -0.0059
      7 C5          3.6473    0.6723    0.0833 C.3       1 <0>        -0.1559
      8 S1          4.4613   -0.8073    0.7457 S.3       1 <0>         0.0279
      9 C6          6.1080   -0.7005    0.1279 C.2       1 <0>         0.2301
     10 N2          7.0831   -1.5879    0.3559 N.2       1 <0>        -0.5583
     11 C7          8.1837   -1.2023   -0.2539 C.2       1 <0>         0.5589
     12 N3          7.9225   -0.0422   -0.8916 N.pl3     1 <0>        -0.5027
     13 H2          8.5422    0.4790   -1.4256 H         1 <0>         0.4448
     14 N4          6.5753    0.2586   -0.6347 N.2       1 <0>        -0.3216
     15 N5          9.3954   -1.8687   -0.2425 N.pl3     1 <0>        -0.8157
     16 H3         -0.5096    1.9024    0.9120 H         1 <0>         0.1074
     17 H4         -0.5267    1.9121   -0.8775 H         1 <0>         0.1082
     18 H5          1.7979    2.1803   -1.0166 H         1 <0>         0.1029
     19 H6          1.6298    2.8165    0.6527 H         1 <0>         0.1222
     20 H7          1.7084   -0.5705   -0.9992 H         1 <0>         0.4315
     21 H8         -0.4673   -0.3868    0.9083 H         1 <0>         0.1358
     22 H9         -0.5226   -0.3777   -0.8773 H         1 <0>         0.1368
     23 H10         3.6796    0.6479   -1.0060 H         1 <0>         0.1170
     24 H11         4.1637    1.5626    0.4422 H         1 <0>         0.1398
     25 H12         9.4867   -2.7010    0.2473 H         1 <0>         0.4310
     26 H13        10.1541   -1.5039   -0.7244 H         1 <0>         0.4195
     27 H14         1.5562   -1.2580    0.4991 H         1 <0>         0.4352
@<TRIPOS>BOND
     1    1    6 1
     2    1    2 1
     3    1   16 1
     4    1   17 1
     5    2    3 1
     6    2   18 1
     7    2   19 1
     8    3    4 1
     9    3    5 1
    10    3    7 1
    11    5    6 1
    12    5   20 1
    13    5   27 1
    14    6   21 1
    15    6   22 1
    16    7    8 1
    17    7   23 1
    18    7   24 1
    19    8    9 1
    20    9   14 2
    21    9   10 1
    22   10   11 2
    23   11   12 1
    24   11   15 1
    25   12   13 1
    26   12   14 1
    27   15   25 1
    28   15   26 1
@<TRIPOS>MOLECULE
ZINC49813731
   29    30     0     0     0
SMALL
USER_CHARGES

@<TRIPOS>ATOM
      1 C1         -0.0178    1.4648    0.0101 C.3       1 <0>        -0.0479
      2 N1          0.0021   -0.0041    0.0020 N.4       1 <0>        -0.5065
      3 C2         -1.3761   -0.5125    0.0124 C.3       1 <0>        -0.0452
      4 C3         -1.3553   -2.0424    0.0040 C.3       1 <0>         0.1399
      5 H1         -0.7691   -2.3931   -0.8453 H         1 <0>         0.1316
      6 C4         -2.7649   -2.5633   -0.1091 C.ar      1 <0>        -0.1361
      7 C5         -3.5752   -2.6083    1.0125 C.ar      1 <0>        -0.0970
      8 C6         -4.8684   -3.0840    0.9188 C.ar      1 <0>        -0.0960
      9 C7         -5.3571   -3.5183   -0.3040 C.ar      1 <0>         0.1123
     10 C8         -4.5399   -3.4729   -1.4352 C.ar      1 <0>         0.0974
     11 C9         -3.2447   -2.9884   -1.3324 C.ar      1 <0>        -0.0856
     12 N2         -5.2946   -3.9656   -2.4972 N.am      1 <0>        -0.6414
     13 H2         -4.9925   -4.0559   -3.4145 H         1 <0>         0.4405
     14 C10        -6.5147   -4.2955   -2.0333 C.2       1 <0>         0.6846
     15 O1         -7.4184   -4.7575   -2.7047 O.2       1 <0>        -0.5336
     16 N3         -6.5830   -4.0372   -0.7137 N.am      1 <0>        -0.6406
     17 H3         -7.3546   -4.1870   -0.1451 H         1 <0>         0.4422
     18 O2         -0.7679   -2.5175    1.2170 O.3       1 <0>        -0.5462
     19 H4          1.0047    1.8421    0.0024 H         1 <0>         0.1282
     20 H5         -0.5450    1.8259   -0.8730 H         1 <0>         0.1239
     21 H6         -0.5280    1.8163    0.9069 H         1 <0>         0.1236
     22 H7          0.4744   -0.3295   -0.8281 H         1 <0>         0.4314
     23 H8         -1.8863   -0.1610    0.9092 H         1 <0>         0.1380
     24 H9         -1.9033   -0.1515   -0.8706 H         1 <0>         0.1447
     25 H10        -3.1943   -2.2703    1.9649 H         1 <0>         0.1338
     26 H11        -5.4974   -3.1180    1.7960 H         1 <0>         0.1421
     27 H12        -2.6111   -2.9476   -2.2061 H         1 <0>         0.1375
     28 H13        -1.2386   -2.2429    2.0158 H         1 <0>         0.3897
     29 H14         0.4901   -0.3383    0.8195 H         1 <0>         0.4346
@<TRIPOS>BOND
     1    1    2 1
     2    1   19 1
     3    1   20 1
     4    1   21 1
     5    2    3 1
     6    2   22 1
     7    2   29 1
     8    3    4 1
     9    3   23 1
    10    3   24 1
    11    4    5 1
    12    4    6 1
    13    4   18 1
    14    6   11 ar
    15    6    7 ar
    16    7    8 ar
    17    7   25 1
    18    8    9 ar
    19    8   26 1
    20    9   16 1
    21    9   10 ar
    22   10   11 ar
    23   10   12 1
    24   11   27 1
    25   12   13 1
    26   12   14 am
    27   14   15 2
    28   14   16 am
    29   16   17 1
    30   18   28 1
@<TRIPOS>MOLECULE
ZINC55131433
   42    43     0     0     0
SMALL
USER_CHARGES

@<TRIPOS>ATOM
      1 C1         -0.0187    1.5250    0.0104 C.3       1 <0>        -0.1359
      2 C2          1.4272    2.0357   -0.0006 C.3       1 <0>        -0.1319
      3 C3          2.0810    1.6663    1.3332 C.3       1 <0>         0.1363
      4 H1          1.6579    2.2823    2.1267 H         1 <0>         0.1202
      5 C4          1.8323    0.2174    1.6402 C.2       1 <0>         0.5043
      6 O1          2.5325   -0.3217    2.4709 O.2       1 <0>        -0.5389
      7 N1          0.8825   -0.5080    1.0486 N.am      1 <0>        -0.7183
      8 C5          0.0021   -0.0041    0.0020 C.3       1 <0>         0.1039
      9 N2          3.5242    1.9036    1.2500 N.am      1 <0>        -0.7172
     10 C6          4.2335    2.1434    2.3706 C.2       1 <0>         0.5200
     11 O2          3.6769    2.1627    3.4480 O.2       1 <0>        -0.5234
     12 C7          5.7181    2.3875    2.2850 C.3       1 <0>        -0.1391
     13 C8          6.2766    2.6316    3.6884 C.3       1 <0>        -0.0765
     14 C9          6.1230    1.3608    4.5265 C.3       1 <0>        -0.1210
     15 C10         6.6815    1.6049    5.9299 C.3       1 <0>        -0.1386
     16 C11         8.1628    1.9754    5.8320 C.3       1 <0>         0.0238
     17 C12         8.3163    3.2461    4.9939 C.3       1 <0>        -0.1398
     18 C13         7.7578    3.0021    3.5905 C.3       1 <0>        -0.1148
     19 N3          8.6990    2.2097    7.1794 N.4       1 <0>        -0.6372
     20 H2         -0.5247    1.8789    0.9086 H         1 <0>         0.0784
     21 H3         -0.5417    1.8885   -0.8741 H         1 <0>         0.0965
     22 H4          1.9749    1.5691   -0.8194 H         1 <0>         0.0791
     23 H5          1.4329    3.1186   -0.1247 H         1 <0>         0.0877
     24 H6          0.7707   -1.4288    1.3324 H         1 <0>         0.4023
     25 H7         -1.0076   -0.3790    0.1694 H         1 <0>         0.0837
     26 H8          0.3570   -0.3542   -0.9673 H         1 <0>         0.0710
     27 H9          3.9694    1.8881    0.3883 H         1 <0>         0.4051
     28 H10         6.2049    1.5163    1.8467 H         1 <0>         0.0976
     29 H11         5.9073    3.2614    1.6616 H         1 <0>         0.1001
     30 H12         5.7286    3.4469    4.1608 H         1 <0>         0.0867
     31 H13         5.0678    1.0969    4.5963 H         1 <0>         0.1079
     32 H14         6.6710    0.5456    4.0541 H         1 <0>         0.0687
     33 H15         6.1335    2.4202    6.4023 H         1 <0>         0.0878
     34 H16         6.5721    0.6996    6.5270 H         1 <0>         0.0870
     35 H17         8.7107    1.1601    5.3596 H         1 <0>         0.1407
     36 H18         7.7684    4.0614    5.4663 H         1 <0>         0.0882
     37 H19         9.3716    3.5101    4.9241 H         1 <0>         0.0884
     38 H20         8.3058    2.1868    3.1181 H         1 <0>         0.0766
     39 H21         7.8672    3.9074    2.9934 H         1 <0>         0.0864
     40 H22         8.5977    1.3717    7.7321 H         1 <0>         0.4360
     41 H23         9.6758    2.4540    7.1148 H         1 <0>         0.4346
     42 H24         8.1917    2.9644    7.6167 H         1 <0>         0.4329
@<TRIPOS>BOND
     1    1    8 1
     2    1    2 1
     3    1   20 1
     4    1   21 1
     5    2    3 1
     6    2   22 1
     7    2   23 1
     8    3    4 1
     9    3    5 1
    10    3    9 1
    11    5    6 2
    12    5    7 am
    13    7    8 1
    14    7   24 1
    15    8   25 1
    16    8   26 1
    17    9   10 am
    18    9   27 1
    19   10   11 2
    20   10   12 1
    21   12   13 1
    22   12   28 1
    23   12   29 1
    24   13   18 1
    25   13   14 1
    26   13   30 1
    27   14   15 1
    28   14   31 1
    29   14   32 1
    30   15   16 1
    31   15   33 1
    32   15   34 1
    33   16   17 1
    34   16   19 1
    35   16   35 1
    36   17   18 1
    37   17   36 1
    38   17   37 1
    39   18   38 1
    40   18   39 1
    41   19   40 1
    42   19   41 1
    43   19   42 1
@<TRIPOS>MOLECULE
ZINC62099649
   35    36     0     0     0
SMALL
USER_CHARGES

@<TRIPOS>ATOM
      1 C1         -0.0167    1.3779    0.0096 C.ar      1 <0>        -0.1447
      2 C2          1.1695    2.0895    0.0021 C.ar      1 <0>        -0.0908
      3 C3          2.3802    1.4178   -0.0135 C.ar      1 <0>         0.0631
      4 C4          2.4000    0.0244   -0.0212 C.ar      1 <0>         0.2041
      5 C5          1.2068   -0.6824   -0.0132 C.ar      1 <0>        -0.1678
      6 C6          0.0021   -0.0041    0.0020 C.ar      1 <0>        -0.1215
      7 C7         -1.2937   -0.7734    0.0108 C.3       1 <0>         0.0406
      8 N1         -1.7285   -1.0160   -1.3713 N.4       1 <0>        -0.3772
      9 C8         -1.9093    0.2688   -2.0275 C.3       1 <0>        -0.0174
     10 C9         -2.1113    0.0885   -3.5347 C.3       1 <0>        -0.1596
     11 C10        -3.5790   -0.1925   -3.7878 C.2       1 <0>         0.5048
     12 O1         -4.2709    0.6374   -4.3388 O.2       1 <0>        -0.5034
     13 N2         -4.1084   -1.3572   -3.4025 N.am      1 <0>        -0.7311
     14 C11        -3.2651   -2.3664   -2.7382 C.3       1 <0>         0.0907
     15 C12        -2.9125   -1.8591   -1.3384 C.3       1 <0>        -0.0386
     16 N3          3.6208   -0.6599   -0.0375 N.pl3     1 <0>        -0.8622
     17 O2          3.5472    2.1162   -0.0218 O.3       1 <0>        -0.4901
     18 H1         -0.9599    1.9036    0.0260 H         1 <0>         0.1337
     19 H2          1.1513    3.1693    0.0081 H         1 <0>         0.1425
     20 H3          1.2186   -1.7623   -0.0191 H         1 <0>         0.1335
     21 H4         -1.1467   -1.7269    0.5181 H         1 <0>         0.1409
     22 H5         -2.0553   -0.1964    0.5353 H         1 <0>         0.1387
     23 H6         -2.7825    0.7668   -1.6060 H         1 <0>         0.1331
     24 H7         -1.0278    0.8863   -1.8555 H         1 <0>         0.1544
     25 H8         -1.8162    0.9989   -4.0564 H         1 <0>         0.1438
     26 H9         -1.5105   -0.7495   -3.8882 H         1 <0>         0.1114
     27 H10        -5.0483   -1.5383   -3.5598 H         1 <0>         0.4186
     28 H11        -3.8115   -3.3063   -2.6600 H         1 <0>         0.1362
     29 H12        -2.3519   -2.5170   -3.3138 H         1 <0>         0.0971
     30 H13        -2.7266   -2.7116   -0.6851 H         1 <0>         0.1493
     31 H14        -3.7505   -1.2839   -0.9448 H         1 <0>         0.1370
     32 H15         4.4546   -0.1643   -0.0435 H         1 <0>         0.4105
     33 H16         3.6331   -1.6298   -0.0428 H         1 <0>         0.4049
     34 H17         3.8937    2.3137    0.8591 H         1 <0>         0.3956
     35 H18        -0.9951   -1.5157   -1.8513 H         1 <0>         0.4198
@<TRIPOS>BOND
     1    1    6 ar
     2    1    2 ar
     3    1   18 1
     4    2    3 ar
     5    2   19 1
     6    3    4 ar
     7    3   17 1
     8    4    5 ar
     9    4   16 1
    10    5    6 ar
    11    5   20 1
    12    6    7 1
    13    7    8 1
    14    7   21 1
    15    7   22 1
    16    8   15 1
    17    8    9 1
    18    8   35 1
    19    9   10 1
    20    9   23 1
    21    9   24 1
    22   10   11 1
    23   10   25 1
    24   10   26 1
    25   11   12 2
    26   11   13 am
    27   13   14 1
    28   13   27 1
    29   14   15 1
    30   14   28 1
    31   14   29 1
    32   15   30 1
    33   15   31 1
    34   16   32 1
    35   16   33 1
    36   17   34 1
@<TRIPOS>MOLECULE
ZINC20907640
   52    56     0     0     0
SMALL
USER_CHARGES
[(2R,3R)-2-hydroxy-3-imidazol-1-yl-spiro[indane-1,4'-piperidine]-1'-yl]-(4-methyl-1H-imidazol-2-yl)methanone
@<TRIPOS>ATOM
      1 C1          2.6574   10.5671   -4.3719 C.3       1 <0>        -0.0746
      2 C2          2.3395   10.7527   -2.9106 C.2       1 <0>        -0.0003
      3 C3          2.8087   11.7461   -2.1164 C.2       1 <0>        -0.0214
      4 N1          2.2878   11.5505   -0.8820 N.pl3     1 <0>        -0.5311
      5 H1          2.5345   12.2442   -0.0647 H         1 <0>         0.4642
      6 C4          1.5047   10.4324   -0.9483 C.2       1 <0>         0.1546
      7 N2          1.5553    9.9655   -2.1778 N.2       1 <0>        -0.4401
      8 C5          0.7398    9.8463    0.1672 C.2       1 <0>         0.6107
      9 O1          0.6819   10.4252    1.2351 O.2       1 <0>        -0.5400
     10 N3          0.1047    8.6689    0.0036 N.am      1 <0>        -0.5903
     11 C6         -0.5775    8.0238    1.1338 C.3       1 <0>         0.1123
     12 C7         -0.0488    6.5923    1.2758 C.3       1 <0>        -0.1263
     13 C8         -0.1928    5.8647   -0.0580 C.3       1 <0>        -0.0123
     14 C9          0.6047    6.5759   -1.1473 C.3       1 <0>        -0.1055
     15 C10         0.0817    8.0075   -1.3082 C.3       1 <0>         0.0496
     16 C11         0.2632    4.4312    0.0752 C.ar      1 <0>        -0.0506
     17 C12         1.5376    3.8893    0.1029 C.ar      1 <0>        -0.1013
     18 C13         1.7112    2.5257    0.2344 C.ar      1 <0>        -0.0809
     19 C14         0.6097    1.6968    0.3392 C.ar      1 <0>        -0.1171
     20 C15        -0.6621    2.2340    0.3068 C.ar      1 <0>        -0.0742
     21 C16        -0.8386    3.6015    0.1797 C.ar      1 <0>        -0.1457
     22 C17        -2.1073    4.4259    0.1243 C.3       1 <0>         0.1485
     23 H2         -2.9053    3.9291   -0.4470 H         1 <0>         0.1315
     24 C18        -1.6781    5.7905   -0.4573 C.3       1 <0>         0.1181
     25 H3         -2.2934    6.6523   -0.1595 H         1 <0>         0.0891
     26 O2         -1.8238    5.8058   -1.8788 O.3       1 <0>        -0.5679
     27 N4         -2.6606    4.5982    1.4699 N.pl3     1 <0>        -0.4045
     28 C19        -1.9689    4.5210    2.6485 C.2       1 <0>         0.0234
     29 C20        -2.8570    4.7410    3.6366 C.2       1 <0>        -0.0034
     30 N5         -4.0583    4.9470    3.0766 N.pl3     1 <0>        -0.4915
     31 C21        -3.9471    4.8687    1.7787 C.cat     1 <0>         0.2888
     32 H4          3.3304   11.3706   -4.7056 H         1 <0>         0.0749
     33 H5          1.7265   10.6018   -4.9569 H         1 <0>         0.0733
     34 H6          3.1473    9.5934   -4.5197 H         1 <0>         0.0729
     35 H7          3.4738   12.5437   -2.4126 H         1 <0>         0.1896
     36 H8         -0.3755    8.5895    2.0553 H         1 <0>         0.1015
     37 H9         -1.6611    8.0046    0.9455 H         1 <0>         0.0628
     38 H10         1.0117    6.6203    1.5666 H         1 <0>         0.0890
     39 H11        -0.6267    6.0628    2.0476 H         1 <0>         0.0730
     40 H12         1.6676    6.6025   -0.8653 H         1 <0>         0.0685
     41 H13         0.4910    6.0342   -2.0979 H         1 <0>         0.0933
     42 H14        -0.9495    7.9873   -1.6906 H         1 <0>         0.0715
     43 H15         0.7221    8.5621   -2.0098 H         1 <0>         0.1727
     44 H16         2.3989    4.5357    0.0211 H         1 <0>         0.1311
     45 H17         2.7066    2.1070    0.2550 H         1 <0>         0.1373
     46 H18         0.7436    0.6300    0.4418 H         1 <0>         0.1363
     47 H19        -1.5222    1.5854    0.3843 H         1 <0>         0.1242
     48 H20        -2.8261    5.7587   -2.3295 H         1 <0>         0.4196
     49 H21        -0.9136    4.3224    2.7639 H         1 <0>         0.2138
     50 H22        -2.6401    4.7500    4.6946 H         1 <0>         0.2219
     51 H23        -4.7513    4.9965    1.0692 H         1 <0>         0.2558
     52 H24        -4.9348    5.1431    3.7116 H         1 <0>         0.5055
@<TRIPOS>BOND
     1    1    2 1
     2    1   32 1
     3    1   33 1
     4    1   34 1
     5    2    7 1
     6    2    3 2
     7    3    4 1
     8    3   35 1
     9    4    5 1
    10    4    6 1
    11    6    7 2
    12    6    8 1
    13    8    9 2
    14    8   10 am
    15   10   15 1
    16   10   11 1
    17   11   12 1
    18   11   36 1
    19   11   37 1
    20   12   13 1
    21   12   38 1
    22   12   39 1
    23   13   24 1
    24   13   14 1
    25   13   16 1
    26   14   15 1
    27   14   40 1
    28   14   41 1
    29   15   42 1
    30   15   43 1
    31   16   21 ar
    32   16   17 ar
    33   17   18 ar
    34   17   44 1
    35   18   19 ar
    36   18   45 1
    37   19   20 ar
    38   19   46 1
    39   20   21 ar
    40   20   47 1
    41   21   22 1
    42   22   23 1
    43   22   24 1
    44   22   27 1
    45   24   25 1
    46   24   26 1
    47   26   48 1
    48   27   31 1
    49   27   28 1
    50   28   29 2
    51   28   49 1
    52   29   30 1
    53   29   50 1
    54   30   31 2
    55   30   52 1
    56   31   51 1
@<TRIPOS>MOLECULE
ZINC39660871
   57    60     0     0     0
SMALL
USER_CHARGES

@<TRIPOS>ATOM
      1 C1         -0.2149    1.6971    0.6634 C.3       1 <0>        -0.0959
      2 C2          1.1750    2.3355    0.6174 C.3       1 <0>        -0.1020
      3 C3          2.2015    1.2975    1.0883 C.3       1 <0>        -0.1046
      4 H1          1.8930    0.8872    2.0498 H         1 <0>         0.0944
      5 C4          2.2686    0.1769    0.0484 C.3       1 <0>        -0.0728
      6 C5          0.8859   -0.3000   -0.2874 C.2       1 <0>        -0.1648
      7 C6         -0.1940    0.3632   -0.0238 C.2       1 <0>        -0.1449
      8 C7          3.5537    1.9485    1.2257 C.2       1 <0>         0.5490
      9 O1          3.8841    2.8279    0.4587 O.2       1 <0>        -0.5261
     10 N1          4.3958    1.5534    2.2011 N.am      1 <0>        -0.6247
     11 C8          4.2208    0.4309    3.1526 C.3       1 <0>         0.1087
     12 C9          5.6268   -0.1975    3.2777 C.3       1 <0>        -0.1109
     13 H2          5.7297   -1.0374    2.5905 H         1 <0>         0.1147
     14 C10         6.5971    0.9317    2.8922 C.3       1 <0>        -0.0731
     15 C11         5.7093    2.1397    2.5601 C.3       1 <0>         0.1057
     16 C12         7.4132    0.5318    1.6668 C.3       1 <0>        -0.1338
     17 C13         8.4101    1.6465    1.3374 C.3       1 <0>        -0.0112
     18 N2          9.2944    1.8702    2.4875 N.4       1 <0>        -0.5042
     19 C14         8.5124    2.3437    3.6360 C.3       1 <0>        -0.0072
     20 C15         7.5197    1.2586    4.0624 C.3       1 <0>        -0.1479
     21 C16         5.8768   -0.6464    4.6944 C.2       1 <0>         0.5214
     22 O2          5.2904   -0.1125    5.6121 O.2       1 <0>        -0.4998
     23 N3          6.7518   -1.6412    4.9417 N.am      1 <0>        -0.7141
     24 C17         6.9948   -2.0776    6.3189 C.3       1 <0>         0.0847
     25 H3          6.9310   -1.2319    7.0037 H         1 <0>         0.1349
     26 C18         8.3779   -2.7677    6.4346 C.3       1 <0>        -0.1619
     27 C19         8.0255   -3.9688    7.3530 C.3       1 <0>         0.0492
     28 O3          6.6863   -4.3067    6.9340 O.3       1 <0>        -0.3409
     29 C20         6.0083   -3.1591    6.7161 C.2       1 <0>         0.4620
     30 O4          4.8131   -3.0156    6.8199 O.2       1 <0>        -0.4168
     31 H4         -0.5170    1.5636    1.7022 H         1 <0>         0.0782
     32 H5         -0.9294    2.3504    0.1626 H         1 <0>         0.0820
     33 H6          1.4044    2.6407   -0.4035 H         1 <0>         0.0785
     34 H7          1.2018    3.2028    1.2771 H         1 <0>         0.0701
     35 H8          2.7512    0.5504   -0.8547 H         1 <0>         0.0807
     36 H9          2.8498   -0.6536    0.4491 H         1 <0>         0.0718
     37 H10         0.7856   -1.2561   -0.7796 H         1 <0>         0.1104
     38 H11        -1.1388   -0.0706   -0.3164 H         1 <0>         0.1094
     39 H12         3.8829    0.8020    4.1201 H         1 <0>         0.1024
     40 H13         3.5132   -0.2970    2.7556 H         1 <0>         0.0961
     41 H14         6.1220    2.6936    1.7170 H         1 <0>         0.0900
     42 H15         5.6114    2.7878    3.4310 H         1 <0>         0.0841
     43 H16         7.9549   -0.3908    1.8756 H         1 <0>         0.0961
     44 H17         6.7455    0.3785    0.8190 H         1 <0>         0.1189
     45 H18         9.0061    1.3566    0.4721 H         1 <0>         0.1405
     46 H19         7.8671    2.5646    1.1129 H         1 <0>         0.1347
     47 H20         9.7547    1.0055    2.7294 H         1 <0>         0.4270
     48 H21         9.1839    2.5676    4.4649 H         1 <0>         0.1399
     49 H22         7.9671    3.2454    3.3570 H         1 <0>         0.1339
     50 H23         6.9270    1.6180    4.9037 H         1 <0>         0.1252
     51 H24         8.0650    0.3621    4.3574 H         1 <0>         0.0972
     52 H25         7.2207   -2.0682    4.2078 H         1 <0>         0.4069
     53 H26         8.7310   -3.1071    5.4608 H         1 <0>         0.0979
     54 H27         9.1072   -2.1106    6.9083 H         1 <0>         0.1092
     55 H28         8.7067   -4.8016    7.1785 H         1 <0>         0.1245
     56 H29         8.0387   -3.6706    8.4013 H         1 <0>         0.0923
     57 H30         9.9886    2.5617    2.2469 H         1 <0>         0.4349
@<TRIPOS>BOND
     1    1    7 1
     2    1    2 1
     3    1   31 1
     4    1   32 1
     5    2    3 1
     6    2   33 1
     7    2   34 1
     8    3    4 1
     9    3    5 1
    10    3    8 1
    11    5    6 1
    12    5   35 1
    13    5   36 1
    14    6    7 2
    15    6   37 1
    16    7   38 1
    17    8    9 2
    18    8   10 am
    19   10   15 1
    20   10   11 1
    21   11   12 1
    22   11   39 1
    23   11   40 1
    24   12   13 1
    25   12   14 1
    26   12   21 1
    27   14   20 1
    28   14   15 1
    29   14   16 1
    30   15   41 1
    31   15   42 1
    32   16   17 1
    33   16   43 1
    34   16   44 1
    35   17   18 1
    36   17   45 1
    37   17   46 1
    38   18   19 1
    39   18   47 1
    40   18   57 1
    41   19   20 1
    42   19   48 1
    43   19   49 1
    44   20   50 1
    45   20   51 1
    46   21   22 2
    47   21   23 am
    48   23   24 1
    49   23   52 1
    50   24   25 1
    51   24   29 1
    52   24   26 1
    53   26   27 1
    54   26   53 1
    55   26   54 1
    56   27   28 1
    57   27   55 1
    58   27   56 1
    59   28   29 1
    60   29   30 2
@<TRIPOS>MOLECULE
ZINC43709010
   34    36     0     0     0
SMALL
USER_CHARGES

@<TRIPOS>ATOM
      1 C1          0.0692    1.2364    0.6273 C.ar      1 <0>        -0.1109
      2 C2          1.2629    1.9412    0.6291 C.ar      1 <0>         0.1334
      3 C3          2.3929    1.3997    0.0132 C.ar      1 <0>         0.0914
      4 C4          2.3203    0.1579   -0.6000 C.ar      1 <0>        -0.0496
      5 C5          1.1298   -0.5418   -0.6005 C.ar      1 <0>        -0.1124
      6 C6          0.0026   -0.0050    0.0131 C.ar      1 <0>         0.1744
      7 N1         -1.2025   -0.7197    0.0097 N.am      1 <0>        -0.6579
      8 C7         -2.3747   -0.0649    0.1261 C.2       1 <0>         0.5193
      9 O1         -2.3938    1.1479    0.1330 O.2       1 <0>        -0.4604
     10 C8         -3.6617   -0.8394    0.2478 C.3       1 <0>         0.0533
     11 H1         -3.7526   -1.5285   -0.5918 H         1 <0>         0.1195
     12 C9         -3.6612   -1.6288    1.5593 C.3       1 <0>        -0.0401
     13 N2         -4.9408   -2.3368    1.7026 N.4       1 <0>        -0.5027
     14 C10        -6.0399   -1.3617    1.7169 C.3       1 <0>        -0.0478
     15 C11        -6.0360   -0.5728    0.4051 C.3       1 <0>         0.0338
     16 O2         -4.7675    0.0678    0.2429 O.3       1 <0>        -0.3261
     17 Br1         1.0315   -2.2347   -1.4373 Br        1 <0>        -0.0243
     18 N3          3.4230    2.3255    0.1770 N.am      1 <0>        -0.6369
     19 H2          4.3320    2.2267   -0.1467 H         1 <0>         0.4424
     20 C12         2.9401    3.3800    0.8607 C.2       1 <0>         0.6871
     21 O3          3.5812    4.3666    1.1716 O.2       1 <0>        -0.5344
     22 N4          1.6404    3.1780    1.1477 N.am      1 <0>        -0.6373
     23 H3          1.0647    3.7897    1.6327 H         1 <0>         0.4413
     24 H4         -0.8052    1.6509    1.1068 H         1 <0>         0.1619
     25 H5          3.1939   -0.2614   -1.0769 H         1 <0>         0.1536
     26 H6         -1.1932   -1.6859   -0.0765 H         1 <0>         0.4152
     27 H7         -2.8451   -2.3513    1.5485 H         1 <0>         0.1521
     28 H8         -3.5292   -0.9432    2.3963 H         1 <0>         0.1518
     29 H9         -5.0633   -2.9706    0.9272 H         1 <0>         0.4314
     30 H10        -6.9897   -1.8859    1.8231 H         1 <0>         0.1525
     31 H11        -5.9070   -0.6762    2.5538 H         1 <0>         0.1451
     32 H12        -6.2089   -1.2528   -0.4291 H         1 <0>         0.0880
     33 H13        -6.8235    0.1803    0.4310 H         1 <0>         0.1514
     34 H14        -4.9420   -2.8579    2.5667 H         1 <0>         0.4418
@<TRIPOS>BOND
     1    1    6 ar
     2    1    2 ar
     3    1   24 1
     4    2   22 1
     5    2    3 ar
     6    3    4 ar
     7    3   18 1
     8    4    5 ar
     9    4   25 1
    10    5    6 ar
    11    5   17 1
    12    6    7 1
    13    7    8 am
    14    7   26 1
    15    8    9 2
    16    8   10 1
    17   10   11 1
    18   10   16 1
    19   10   12 1
    20   12   13 1
    21   12   27 1
    22   12   28 1
    23   13   14 1
    24   13   29 1
    25   13   34 1
    26   14   15 1
    27   14   30 1
    28   14   31 1
    29   15   16 1
    30   15   32 1
    31   15   33 1
    32   18   19 1
    33   18   20 am
    34   20   21 2
    35   20   22 am
    36   22   23 1
@<TRIPOS>MOLECULE
ZINC55392886
   44    46     0     0     0
SMALL
USER_CHARGES

@<TRIPOS>ATOM
      1 C1         -0.0272    1.5025    0.0107 C.3       1 <0>        -0.0689
      2 C2         -0.0052   -0.0043    0.0023 C.2       1 <0>         0.2785
      3 N1          0.0007   -0.6725   -1.1294 N.2       1 <0>        -0.5607
      4 C3          0.0201   -1.9931   -1.0630 C.2       1 <0>         0.2633
      5 S1          0.0299   -2.2734    0.5940 S.3       1 <0>         0.3702
      6 N2          0.0140   -0.6826    1.1228 N.2       1 <0>        -0.4985
      7 N3          0.0300   -2.9151   -2.1001 N.am      1 <0>        -0.6168
      8 C4          0.0502   -4.2350   -1.8282 C.2       1 <0>         0.7108
      9 O1          0.1538   -4.6173   -0.6788 O.2       1 <0>        -0.5410
     10 N4         -0.0444   -5.1310   -2.8306 N.am      1 <0>        -0.6178
     11 C5         -0.0529   -4.6887   -4.2317 C.3       1 <0>         0.1037
     12 C6         -1.2867   -5.2740   -4.9260 C.3       1 <0>        -0.1266
     13 C7         -1.2952   -6.7938   -4.7465 C.3       1 <0>        -0.1206
     14 C8         -1.3733   -7.1328   -3.2562 C.3       1 <0>        -0.1509
     15 C9         -0.1349   -6.5690   -2.5431 C.3       1 <0>         0.1342
     16 C10        -2.5077   -7.3855   -5.4681 C.3       1 <0>         0.1707
     17 H1         -2.4516   -7.1452   -6.5298 H         1 <0>         0.1539
     18 C11        -2.5162   -8.8821   -5.2916 C.cat     1 <0>         0.2687
     19 N5         -3.0237   -9.5252   -4.2757 N.pl3     1 <0>        -0.4734
     20 C12        -2.8518  -10.8432   -4.4561 C.2       1 <0>         0.0111
     21 C13        -2.2137  -11.0236   -5.6282 C.2       1 <0>         0.0291
     22 N6         -2.0053   -9.7802   -6.1611 N.pl3     1 <0>        -0.3948
     23 C14        -1.3482   -9.4795   -7.4355 C.3       1 <0>         0.0489
     24 O2         -3.7055   -6.8340   -4.9175 O.3       1 <0>        -0.5181
     25 H2          0.9950    1.8809    0.0046 H         1 <0>         0.0903
     26 H3         -0.5533    1.8632   -0.8732 H         1 <0>         0.0894
     27 H4         -0.5392    1.8535    0.9067 H         1 <0>         0.0902
     28 H5          0.0224   -2.6096   -3.0207 H         1 <0>         0.4212
     29 H6         -0.0935   -3.6002   -4.2710 H         1 <0>         0.0884
     30 H7          0.8493   -5.0412   -4.7316 H         1 <0>         0.0864
     31 H8         -2.1883   -4.8504   -4.4836 H         1 <0>         0.0881
     32 H9         -1.2546   -5.0333   -5.9886 H         1 <0>         0.0944
     33 H10        -0.3817   -7.2142   -5.1672 H         1 <0>         0.1019
     34 H11        -2.2741   -6.6917   -2.8295 H         1 <0>         0.0826
     35 H12        -1.4029   -8.2151   -3.1303 H         1 <0>         0.0704
     36 H13         0.7608   -7.0716   -2.9082 H         1 <0>         0.0797
     37 H14        -0.2295   -6.7215   -1.4680 H         1 <0>         0.1094
     38 H15        -3.1696  -11.6230   -3.7798 H         1 <0>         0.2285
     39 H16        -1.9255  -11.9681   -6.0655 H         1 <0>         0.2283
     40 H17        -0.2780   -9.3536   -7.2716 H         1 <0>         0.1152
     41 H18        -1.5148  -10.3006   -8.1328 H         1 <0>         0.1241
     42 H19        -1.7628   -8.5608   -7.8503 H         1 <0>         0.1141
     43 H20        -3.8216   -7.0094   -3.9737 H         1 <0>         0.3830
     44 H21        -3.4568   -9.1149   -3.5109 H         1 <0>         0.4597
@<TRIPOS>BOND
     1    1    2 1
     2    1   25 1
     3    1   26 1
     4    1   27 1
     5    2    6 2
     6    2    3 1
     7    3    4 2
     8    4    5 1
     9    4    7 1
    10    5    6 1
    11    7    8 am
    12    7   28 1
    13    8    9 2
    14    8   10 am
    15   10   15 1
    16   10   11 1
    17   11   12 1
    18   11   29 1
    19   11   30 1
    20   12   13 1
    21   12   31 1
    22   12   32 1
    23   13   14 1
    24   13   16 1
    25   13   33 1
    26   14   15 1
    27   14   34 1
    28   14   35 1
    29   15   36 1
    30   15   37 1
    31   16   17 1
    32   16   18 1
    33   16   24 1
    34   18   22 1
    35   18   19 2
    36   19   20 1
    37   19   44 1
    38   20   21 2
    39   20   38 1
    40   21   22 1
    41   21   39 1
    42   22   23 1
    43   23   40 1
    44   23   41 1
    45   23   42 1
    46   24   43 1
@<TRIPOS>MOLECULE
ZINC67246183
   53    55     0     0     0
SMALL
USER_CHARGES

@<TRIPOS>ATOM
      1 C1         -0.0187    1.5258    0.0104 C.3       1 <0>        -0.1845
      2 C2          0.0021   -0.0041    0.0020 C.3       1 <0>         0.0228
      3 C3          0.7421   -0.5109    1.2415 C.3       1 <0>        -0.1850
      4 N1         -1.3761   -0.5125    0.0124 N.4       1 <0>        -0.3827
      5 C4         -2.0874   -0.0183   -1.1726 C.3       1 <0>        -0.0067
      6 C5         -3.5461   -0.4781   -1.1253 C.3       1 <0>        -0.1546
      7 C6         -3.5926   -2.0086   -1.1015 C.3       1 <0>         0.1353
      8 C7         -2.7851   -2.5155    0.0969 C.3       1 <0>        -0.1601
      9 C8         -1.3546   -1.9802    0.0044 C.3       1 <0>        -0.0078
     10 N2         -4.9827   -2.4547   -0.9796 N.am      1 <0>        -0.7321
     11 C9         -5.3411   -3.6737   -1.4288 C.2       1 <0>         0.5263
     12 O1         -4.5129   -4.4015   -1.9340 O.2       1 <0>        -0.5214
     13 C10        -6.7711   -4.1326   -1.3033 C.3       1 <0>        -0.1045
     14 C11        -7.1738   -4.1488    0.1728 C.3       1 <0>        -0.1172
     15 C12        -8.6302   -4.6032    0.2980 C.3       1 <0>        -0.1118
     16 C13        -8.7849   -5.9956   -0.3036 C.3       1 <0>         0.1207
     17 C14        -8.3630   -6.0011   -1.7687 C.3       1 <0>        -0.1146
     18 C15        -6.9077   -5.5410   -1.8855 C.3       1 <0>        -0.1090
     19 C16        -7.9773   -7.0029    0.4821 C.2       1 <0>         0.5336
     20 O2         -6.7760   -7.0139    0.6449 O.2       1 <0>        -0.4572
     21 N3         -8.8749   -7.8873    0.9642 N.am      1 <0>        -0.6802
     22 C17       -10.1226   -7.5758    0.5923 C.2       1 <0>         0.7027
     23 O3        -11.1024   -8.2238    0.9039 O.2       1 <0>        -0.5317
     24 N4        -10.1701   -6.4639   -0.1660 N.am      1 <0>        -0.7191
     25 H1          1.0039    1.9031    0.0027 H         1 <0>         0.1063
     26 H2         -0.5459    1.8868   -0.8726 H         1 <0>         0.0820
     27 H3         -0.5289    1.8773    0.9072 H         1 <0>         0.0811
     28 H4          0.5123   -0.3556   -0.8948 H         1 <0>         0.1370
     29 H5          1.7647   -0.1336    1.2338 H         1 <0>         0.1064
     30 H6          0.2319   -0.1594    2.1383 H         1 <0>         0.0811
     31 H7          0.7568   -1.6008    1.2356 H         1 <0>         0.0825
     32 H8         -2.0506    1.0710   -1.1898 H         1 <0>         0.1385
     33 H9         -1.6120   -0.4112   -2.0713 H         1 <0>         0.1322
     34 H10        -4.0225   -0.0855   -0.2270 H         1 <0>         0.0940
     35 H11        -4.0720   -0.1116   -2.0069 H         1 <0>         0.1194
     36 H12        -3.1623   -2.4007   -2.0230 H         1 <0>         0.1051
     37 H13        -3.2458   -2.1652    1.0206 H         1 <0>         0.0902
     38 H14        -2.7671   -3.6053    0.0890 H         1 <0>         0.1179
     39 H15        -0.8948   -2.3313   -0.9194 H         1 <0>         0.1316
     40 H16        -0.7769   -2.3393    0.8560 H         1 <0>         0.1365
     41 H17        -5.6451   -1.8726   -0.5755 H         1 <0>         0.4060
     42 H18        -7.4211   -3.4491   -1.8496 H         1 <0>         0.1044
     43 H19        -6.5296   -4.8389    0.7177 H         1 <0>         0.0891
     44 H20        -7.0684   -3.1471    0.5893 H         1 <0>         0.0757
     45 H21        -8.9132   -4.6289    1.3503 H         1 <0>         0.0824
     46 H22        -9.2755   -3.9042   -0.2341 H         1 <0>         0.0922
     47 H23        -8.4580   -7.0100   -2.1701 H         1 <0>         0.0832
     48 H24        -9.0041   -5.3243   -2.3336 H         1 <0>         0.0906
     49 H25        -6.6128   -5.5308   -2.9348 H         1 <0>         0.0833
     50 H26        -6.2644   -6.2264   -1.3336 H         1 <0>         0.0913
     51 H27        -8.6447   -8.6540    1.5120 H         1 <0>         0.4355
     52 H28       -10.9625   -6.0532   -0.5459 H         1 <0>         0.4434
     53 H29        -1.8467   -0.1886    0.8441 H         1 <0>         0.4200
@<TRIPOS>BOND
     1    1    2 1
     2    1   25 1
     3    1   26 1
     4    1   27 1
     5    2    3 1
     6    2    4 1
     7    2   28 1
     8    3   29 1
     9    3   30 1
    10    3   31 1
    11    4    9 1
    12    4    5 1
    13    4   53 1
    14    5    6 1
    15    5   32 1
    16    5   33 1
    17    6    7 1
    18    6   34 1
    19    6   35 1
    20    7    8 1
    21    7   10 1
    22    7   36 1
    23    8    9 1
    24    8   37 1
    25    8   38 1
    26    9   39 1
    27    9   40 1
    28   10   11 am
    29   10   41 1
    30   11   12 2
    31   11   13 1
    32   13   18 1
    33   13   14 1
    34   13   42 1
    35   14   15 1
    36   14   43 1
    37   14   44 1
    38   15   16 1
    39   15   45 1
    40   15   46 1
    41   16   24 1
    42   16   17 1
    43   16   19 1
    44   17   18 1
    45   17   47 1
    46   17   48 1
    47   18   49 1
    48   18   50 1
    49   19   20 2
    50   19   21 am
    51   21   22 am
    52   21   51 1
    53   22   23 2
    54   22   24 am
    55   24   52 1
@<TRIPOS>MOLECULE
ZINC36170753
   54    55     0     0     0
SMALL
USER_CHARGES

@<TRIPOS>ATOM
      1 C1         -1.1131    1.4721   -1.0291 C.3       1 <0>        -0.1333
      2 C2         -0.8350    0.0018   -0.8504 C.ar      1 <0>        -0.0374
      3 C3         -0.9718   -0.8626   -1.9204 C.ar      1 <0>        -0.1209
      4 C4         -0.7167   -2.2113   -1.7565 C.ar      1 <0>        -0.0515
      5 C5         -0.3243   -2.6955   -0.5227 C.ar      1 <0>        -0.1431
      6 C6         -0.1866   -1.8310    0.5472 C.ar      1 <0>        -0.0612
      7 C7         -0.4376   -0.4817    0.3822 C.ar      1 <0>        -0.1258
      8 C8          0.2406   -2.3590    1.8924 C.3       1 <0>        -0.1195
      9 C9         -0.0472   -4.1660   -0.3437 C.3       1 <0>         0.1095
     10 H1          0.0108   -4.6463   -1.3205 H         1 <0>         0.0960
     11 C10        -1.1751   -4.8021    0.4712 C.3       1 <0>        -0.0069
     12 N1         -0.8400   -6.2027    0.7611 N.4       1 <0>        -0.6438
     13 N2          1.2277   -4.3413    0.3647 N.3       1 <0>        -0.5411
     14 C11         1.7629   -5.6946    0.1587 C.3       1 <0>        -0.0019
     15 C12         3.0572   -5.8552    0.9591 C.3       1 <0>        -0.0082
     16 N3          4.0341   -4.8512    0.5174 N.4       1 <0>        -0.3844
     17 C13         3.4955   -3.5050    0.7521 C.3       1 <0>        -0.0115
     18 C14         2.2048   -3.3248   -0.0500 C.3       1 <0>         0.0200
     19 C15         5.2826   -5.0174    1.2734 C.3       1 <0>         0.0246
     20 C16         5.8449   -6.4190    1.0277 C.3       1 <0>        -0.1856
     21 C17         6.3004   -3.9717    0.8135 C.3       1 <0>        -0.1871
     22 C18        -0.8668   -3.1537   -2.9229 C.3       1 <0>        -0.1268
     23 H2         -0.1970    1.9813   -1.3284 H         1 <0>         0.0830
     24 H3         -1.8723    1.6072   -1.7994 H         1 <0>         0.0773
     25 H4         -1.4711    1.8910   -0.0887 H         1 <0>         0.0768
     26 H5         -1.2783   -0.4843   -2.8844 H         1 <0>         0.1339
     27 H6         -0.3264    0.1943    1.2171 H         1 <0>         0.1327
     28 H7          1.3169   -2.2306    2.0080 H         1 <0>         0.0717
     29 H8         -0.2773   -1.8106    2.6792 H         1 <0>         0.0722
     30 H9         -0.0086   -3.4178    1.9631 H         1 <0>         0.0732
     31 H10        -1.2993   -4.2570    1.4069 H         1 <0>         0.1528
     32 H11        -2.1031   -4.7611   -0.0991 H         1 <0>         0.1493
     33 H12        -0.4960   -6.6466   -0.0772 H         1 <0>         0.4307
     34 H13        -0.1290   -6.2373    1.4761 H         1 <0>         0.4353
     35 H14         1.0327   -6.4298    0.4966 H         1 <0>         0.0943
     36 H15         1.9692   -5.8467   -0.9007 H         1 <0>         0.0844
     37 H16         2.8480   -5.7165    2.0198 H         1 <0>         0.1424
     38 H17         3.4634   -6.8535    0.7965 H         1 <0>         0.1461
     39 H18         3.2840   -3.3783    1.8139 H         1 <0>         0.1413
     40 H19         4.2266   -2.7609    0.4360 H         1 <0>         0.1456
     41 H20         2.4184   -3.4379   -1.1129 H         1 <0>         0.0725
     42 H21         1.7970   -2.3312    0.1356 H         1 <0>         0.1473
     43 H22         5.0834   -4.8873    2.3371 H         1 <0>         0.1400
     44 H23         6.0442   -6.5492   -0.0360 H         1 <0>         0.0827
     45 H24         6.7713   -6.5423    1.5886 H         1 <0>         0.1117
     46 H25         5.1198   -7.1640    1.3553 H         1 <0>         0.0799
     47 H26         6.4997   -4.1019   -0.2502 H         1 <0>         0.0830
     48 H27         5.8998   -2.9732    0.9886 H         1 <0>         0.0829
     49 H28         7.2268   -4.0951    1.3745 H         1 <0>         0.1117
     50 H29         0.0810   -3.2255   -3.4563 H         1 <0>         0.0766
     51 H30        -1.1542   -4.1400   -2.5584 H         1 <0>         0.0608
     52 H31        -1.6358   -2.7774   -3.5974 H         1 <0>         0.0831
     53 H32        -1.6650   -6.6861    1.0833 H         1 <0>         0.4432
     54 H33         4.2189   -4.9724   -0.4671 H         1 <0>         0.4215
@<TRIPOS>BOND
     1    1    2 1
     2    1   23 1
     3    1   24 1
     4    1   25 1
     5    2    7 ar
     6    2    3 ar
     7    3    4 ar
     8    3   26 1
     9    4    5 ar
    10    4   22 1
    11    5    6 ar
    12    5    9 1
    13    6    7 ar
    14    6    8 1
    15    7   27 1
    16    8   28 1
    17    8   29 1
    18    8   30 1
    19    9   10 1
    20    9   11 1
    21    9   13 1
    22   11   12 1
    23   11   31 1
    24   11   32 1
    25   12   33 1
    26   12   34 1
    27   12   53 1
    28   13   18 1
    29   13   14 1
    30   14   15 1
    31   14   35 1
    32   14   36 1
    33   15   16 1
    34   15   37 1
    35   15   38 1
    36   16   17 1
    37   16   19 1
    38   16   54 1
    39   17   18 1
    40   17   39 1
    41   17   40 1
    42   18   41 1
    43   18   42 1
    44   19   20 1
    45   19   21 1
    46   19   43 1
    47   20   44 1
    48   20   45 1
    49   20   46 1
    50   21   47 1
    51   21   48 1
    52   21   49 1
    53   22   50 1
    54   22   51 1
    55   22   52 1
@<TRIPOS>MOLECULE
ZINC42953642
   48    49     0     0     0
SMALL
USER_CHARGES

@<TRIPOS>ATOM
      1 C1         -0.3668    1.6205    0.5559 C.3       1 <0>        -0.1775
      2 C2         -0.4304    0.0944    0.4670 C.3       1 <0>         0.0295
      3 H1         -0.3723   -0.2114   -0.5776 H         1 <0>         0.1407
      4 C3          0.7421   -0.5109    1.2415 C.3       1 <0>         0.1157
      5 H2          0.6840   -0.2051    2.2861 H         1 <0>         0.1284
      6 C4          0.6794   -2.0141    1.1540 C.ar      1 <0>        -0.1801
      7 C5          0.4936   -2.6277   -0.0707 C.ar      1 <0>        -0.1265
      8 C6          0.4365   -4.0064   -0.1516 C.ar      1 <0>        -0.0824
      9 C7          0.5654   -4.7720    0.9932 C.ar      1 <0>        -0.0699
     10 C8          0.7513   -4.1575    2.2185 C.ar      1 <0>        -0.0785
     11 C9          0.8135   -2.7790    2.2976 C.ar      1 <0>        -0.0887
     12 Br1         0.4867   -6.6582    0.8833 Br        1 <0>        -0.0045
     13 N1          2.0071   -0.0390    0.6627 N.3       1 <0>        -0.5113
     14 C10         2.1262   -0.4451   -0.7448 C.3       1 <0>        -0.0015
     15 C11         3.4261    0.1153   -1.3260 C.3       1 <0>        -0.0068
     16 N2          4.5673   -0.3932   -0.5535 N.4       1 <0>        -0.3858
     17 C12         4.4469    0.0411    0.8445 C.3       1 <0>        -0.0075
     18 C13         3.1555   -0.5199    1.4437 C.3       1 <0>         0.0264
     19 C14         5.8160    0.1306   -1.1230 C.3       1 <0>         0.0246
     20 C15         7.0049   -0.3989   -0.3185 C.3       1 <0>        -0.1863
     21 C16         5.9425   -0.3232   -2.5786 C.3       1 <0>        -0.1858
     22 N3         -1.6954   -0.3775    1.0459 N.4       1 <0>        -0.6354
     23 H3          0.5719    1.9706    0.1264 H         1 <0>         0.1142
     24 H4         -1.2020    2.0517    0.0041 H         1 <0>         0.0873
     25 H5         -0.4248    1.9263    1.6005 H         1 <0>         0.0873
     26 H6          0.3926   -2.0298   -0.9644 H         1 <0>         0.1359
     27 H7          0.2909   -4.4857   -1.1084 H         1 <0>         0.1462
     28 H8          0.8520   -4.7550    3.1125 H         1 <0>         0.1482
     29 H9          0.9628   -2.2993    3.2536 H         1 <0>         0.1419
     30 H10         2.1381   -1.5331   -0.8096 H         1 <0>         0.0818
     31 H11         1.2783   -0.0561   -1.3085 H         1 <0>         0.1228
     32 H12         3.5234   -0.1966   -2.3659 H         1 <0>         0.1428
     33 H13         3.4080    1.2039   -1.2734 H         1 <0>         0.1411
     34 H14         5.3010   -0.3259    1.4137 H         1 <0>         0.1440
     35 H15         4.4236    1.1301    0.8859 H         1 <0>         0.1420
     36 H16         3.0585   -0.1855    2.4766 H         1 <0>         0.1301
     37 H17         3.1844   -1.6092    1.4149 H         1 <0>         0.0714
     38 H18         5.8055    1.2198   -1.0815 H         1 <0>         0.1400
     39 H19         7.0154   -1.4881   -0.3600 H         1 <0>         0.0817
     40 H20         7.9315   -0.0103   -0.7410 H         1 <0>         0.1110
     41 H21         6.9148   -0.0757    0.7185 H         1 <0>         0.0823
     42 H22         5.0956    0.0541   -3.1517 H         1 <0>         0.0812
     43 H23         6.8691    0.0655   -3.0011 H         1 <0>         0.1110
     44 H24         5.9531   -1.4123   -2.6201 H         1 <0>         0.0816
     45 H25        -2.4686    0.0217    0.5351 H         1 <0>         0.4452
     46 H26        -1.7373   -1.3839    0.9872 H         1 <0>         0.4354
     47 H27        -1.7491   -0.0944    2.0128 H         1 <0>         0.4378
     48 H28         4.5771   -1.4014   -0.5927 H         1 <0>         0.4190
@<TRIPOS>BOND
     1    1    2 1
     2    1   23 1
     3    1   24 1
     4    1   25 1
     5    2    3 1
     6    2    4 1
     7    2   22 1
     8    4    5 1
     9    4    6 1
    10    4   13 1
    11    6   11 ar
    12    6    7 ar
    13    7    8 ar
    14    7   26 1
    15    8    9 ar
    16    8   27 1
    17    9   10 ar
    18    9   12 1
    19   10   11 ar
    20   10   28 1
    21   11   29 1
    22   13   18 1
    23   13   14 1
    24   14   15 1
    25   14   30 1
    26   14   31 1
    27   15   16 1
    28   15   32 1
    29   15   33 1
    30   16   17 1
    31   16   19 1
    32   16   48 1
    33   17   18 1
    34   17   34 1
    35   17   35 1
    36   18   36 1
    37   18   37 1
    38   19   20 1
    39   19   21 1
    40   19   38 1
    41   20   39 1
    42   20   40 1
    43   20   41 1
    44   21   42 1
    45   21   43 1
    46   21   44 1
    47   22   45 1
    48   22   46 1
    49   22   47 1
@<TRIPOS>MOLECULE
ZINC43390643
   41    43     0     0     0
SMALL
USER_CHARGES

@<TRIPOS>ATOM
      1 C1          1.7109    4.6672   -0.6284 C.2       1 <0>        -0.2193
      2 C2          2.9522    4.2093   -0.1297 C.2       1 <0>        -0.1326
      3 C3          3.1332    2.9680   -0.6153 C.2       1 <0>        -0.1203
      4 O1          2.0734    2.6517   -1.3773 O.3       1 <0>        -0.1616
      5 C4          1.2077    3.6784   -1.3888 C.2       1 <0>         0.0307
      6 C5          4.3235    2.0827   -0.3498 C.3       1 <0>         0.0940
      7 N1          4.0705    1.2677    0.8459 N.4       1 <0>        -0.3702
      8 C6          2.9700    0.3325    0.5773 C.3       1 <0>        -0.0921
      9 C7          1.6031    0.6573    1.1831 C.3       1 <0>        -0.1294
     10 C8          2.4393   -0.4903    1.7529 C.3       1 <0>        -0.1853
     11 C9          5.2827    0.5120    1.1888 C.3       1 <0>         0.0665
     12 H1          6.1259    1.1973    1.2749 H         1 <0>         0.1759
     13 C10         5.0738   -0.2097    2.5216 C.3       1 <0>        -0.0495
     14 N2          4.7282    0.7702    3.5601 N.4       1 <0>        -0.6489
     15 C11         5.5661   -0.4999    0.1087 C.ar      1 <0>        -0.1386
     16 C12         4.7944   -1.6432    0.0135 C.ar      1 <0>        -0.1046
     17 C13         5.0527   -2.5725   -0.9764 C.ar      1 <0>        -0.0705
     18 C14         6.0841   -2.3595   -1.8733 C.ar      1 <0>        -0.0393
     19 C15         6.8574   -1.2138   -1.7787 C.ar      1 <0>         0.1295
     20 C16         6.5934   -0.2818   -0.7895 C.ar      1 <0>        -0.1067
     21 F1          7.8654   -1.0043   -2.6535 F         1 <0>        -0.1012
     22 Cl1         6.4096   -3.5270   -3.1161 Cl        1 <0>         0.0066
     23 H2          1.2526    5.6253   -0.4324 H         1 <0>         0.1673
     24 H3          3.6259    4.7522    0.5165 H         1 <0>         0.1607
     25 H4          0.2669    3.7054   -1.9186 H         1 <0>         0.2226
     26 H5          4.4886    1.4294   -1.2065 H         1 <0>         0.1533
     27 H6          5.2069    2.7004   -0.1883 H         1 <0>         0.1636
     28 H7          2.9861   -0.1431   -0.4034 H         1 <0>         0.1938
     29 H8          1.5205    1.5649    1.7810 H         1 <0>         0.1241
     30 H9          0.7196    0.3955    0.6010 H         1 <0>         0.1481
     31 H10         2.1058   -1.5072    1.5457 H         1 <0>         0.1565
     32 H11         2.9067   -0.3377    2.7257 H         1 <0>         0.0992
     33 H12         4.2643   -0.9326    2.4204 H         1 <0>         0.1753
     34 H13         5.9908   -0.7279    2.8019 H         1 <0>         0.1921
     35 H14         3.9086    1.2859    3.2765 H         1 <0>         0.4193
     36 H15         4.5397    0.2893    4.4269 H         1 <0>         0.4640
     37 H16         3.9892   -1.8105    0.7136 H         1 <0>         0.1474
     38 H17         4.4495   -3.4654   -1.0495 H         1 <0>         0.1646
     39 H18         7.1929    0.6137   -0.7173 H         1 <0>         0.1609
     40 H19         5.4988    1.4084    3.6902 H         1 <0>         0.4514
     41 H20         3.8201    1.8694    1.6162 H         1 <0>         0.4027
@<TRIPOS>BOND
     1    1    5 2
     2    1    2 1
     3    1   23 1
     4    2    3 2
     5    2   24 1
     6    3    4 1
     7    3    6 1
     8    4    5 1
     9    5   25 1
    10    6    7 1
    11    6   26 1
    12    6   27 1
    13    7    8 1
    14    7   11 1
    15    7   41 1
    16    8   10 1
    17    8    9 1
    18    8   28 1
    19    9   10 1
    20    9   29 1
    21    9   30 1
    22   10   31 1
    23   10   32 1
    24   11   12 1
    25   11   13 1
    26   11   15 1
    27   13   14 1
    28   13   33 1
    29   13   34 1
    30   14   35 1
    31   14   36 1
    32   14   40 1
    33   15   20 ar
    34   15   16 ar
    35   16   17 ar
    36   16   37 1
    37   17   18 ar
    38   17   38 1
    39   18   19 ar
    40   18   22 1
    41   19   20 ar
    42   19   21 1
    43   20   39 1
@<TRIPOS>MOLECULE
ZINC61642986
   60    61     0     0     0
SMALL
USER_CHARGES

@<TRIPOS>ATOM
      1 C1         -0.9517    1.8108   -2.5888 C.3       1 <0>        -0.1502
      2 C2         -0.8752    0.3803   -2.0515 C.3       1 <0>        -0.0628
      3 C3         -0.5358    0.4131   -0.5600 C.3       1 <0>        -0.1486
      4 C4         -2.2244   -0.3127   -2.2524 C.3       1 <0>        -0.1502
      5 C5          0.2110   -0.3901   -2.8049 C.3       1 <0>        -0.0786
      6 C6          0.2874   -1.8206   -2.2677 C.3       1 <0>        -0.1245
      7 C7          1.3736   -2.5910   -3.0211 C.3       1 <0>        -0.1432
      8 C8          2.7228   -1.8980   -2.8202 C.3       1 <0>         0.0811
      9 C9          2.6463   -0.4675   -3.3575 C.3       1 <0>        -0.1225
     10 C10         1.5601    0.3029   -2.6041 C.3       1 <0>        -0.1289
     11 C11         3.0622   -1.8652   -1.3287 C.3       1 <0>        -0.0081
     12 N1          4.3902   -1.2655   -1.1418 N.4       1 <0>        -0.6370
     13 N2          3.7657   -2.6376   -3.5436 N.3       1 <0>        -0.5249
     14 C12         3.5303   -2.5950   -5.0025 C.3       1 <0>         0.0391
     15 C13         4.0376   -3.9621   -5.5252 C.3       1 <0>        -0.1314
     16 C14         3.6105   -4.9145   -4.3775 C.3       1 <0>        -0.1470
     17 C15         3.8065   -4.0480   -3.1156 C.3       1 <0>         0.0202
     18 H1          3.0044   -4.2429   -2.4037 H         1 <0>         0.0992
     19 C16         5.1612   -4.3589   -2.4761 C.3       1 <0>        -0.0015
     20 N3          5.1530   -5.7323   -1.9548 N.4       1 <0>        -0.3883
     21 C17         6.4981   -6.0842   -1.4808 C.3       1 <0>        -0.0506
     22 C18         4.2006   -5.8274   -0.8404 C.3       1 <0>        -0.0586
     23 H2          0.0095    2.3045   -2.4457 H         1 <0>         0.0563
     24 H3         -1.1935    1.7874   -3.6514 H         1 <0>         0.0587
     25 H4         -1.7255    2.3596   -2.0521 H         1 <0>         0.0624
     26 H5         -1.3097    0.9619   -0.0233 H         1 <0>         0.0635
     27 H6         -0.4814   -0.6060   -0.1773 H         1 <0>         0.0535
     28 H7          0.4254    0.9068   -0.4169 H         1 <0>         0.0521
     29 H8         -2.4663   -0.3361   -3.3150 H         1 <0>         0.0584
     30 H9         -2.1700   -1.3319   -1.8697 H         1 <0>         0.0560
     31 H10        -2.9983    0.2361   -1.7157 H         1 <0>         0.0624
     32 H11        -0.0309   -0.4135   -3.8675 H         1 <0>         0.0799
     33 H12         0.5292   -1.7972   -1.2051 H         1 <0>         0.0676
     34 H13        -0.6738   -2.3143   -2.4108 H         1 <0>         0.0852
     35 H14         1.4280   -3.6101   -2.6383 H         1 <0>         0.0715
     36 H15         1.1318   -2.6144   -4.0837 H         1 <0>         0.0924
     37 H16         3.6075    0.0262   -3.2143 H         1 <0>         0.0711
     38 H17         2.4045   -0.4908   -4.4200 H         1 <0>         0.0963
     39 H18         1.5057    1.3220   -2.9868 H         1 <0>         0.0908
     40 H19         1.8020    0.3263   -1.5415 H         1 <0>         0.0635
     41 H20         2.3174   -1.2707   -0.7996 H         1 <0>         0.1551
     42 H21         3.0635   -2.8812   -0.9339 H         1 <0>         0.1252
     43 H22         4.3639   -0.2964   -1.4213 H         1 <0>         0.4420
     44 H23         4.6538   -1.3283   -0.1699 H         1 <0>         0.4379
     45 H24         2.4669   -2.4795   -5.2121 H         1 <0>         0.0759
     46 H25         4.0976   -1.7816   -5.4548 H         1 <0>         0.1042
     47 H26         3.5441   -4.2305   -6.4593 H         1 <0>         0.0968
     48 H27         5.1209   -3.9566   -5.6453 H         1 <0>         0.0855
     49 H28         2.5657   -5.2054   -4.4867 H         1 <0>         0.0968
     50 H29         4.2549   -5.7930   -4.3457 H         1 <0>         0.0761
     51 H30         5.9476   -4.2589   -3.2241 H         1 <0>         0.1472
     52 H31         5.3459   -3.6613   -1.6591 H         1 <0>         0.1072
     53 H32         6.7956   -5.3968   -0.6889 H         1 <0>         0.1229
     54 H33         6.4920   -7.1033   -1.0940 H         1 <0>         0.1333
     55 H34         7.2048   -6.0136   -2.3076 H         1 <0>         0.1294
     56 H35         3.1885   -5.6693   -1.2130 H         1 <0>         0.1223
     57 H36         4.2702   -6.8159   -0.3863 H         1 <0>         0.1365
     58 H37         4.4363   -5.0677   -0.0952 H         1 <0>         0.1191
     59 H38         5.0649   -1.7601   -1.7059 H         1 <0>         0.4303
     60 H39         4.8775   -6.3686   -2.6879 H         1 <0>         0.4318
@<TRIPOS>BOND
     1    1    2 1
     2    1   23 1
     3    1   24 1
     4    1   25 1
     5    2    3 1
     6    2    4 1
     7    2    5 1
     8    3   26 1
     9    3   27 1
    10    3   28 1
    11    4   29 1
    12    4   30 1
    13    4   31 1
    14    5   10 1
    15    5    6 1
    16    5   32 1
    17    6    7 1
    18    6   33 1
    19    6   34 1
    20    7    8 1
    21    7   35 1
    22    7   36 1
    23    8    9 1
    24    8   11 1
    25    8   13 1
    26    9   10 1
    27    9   37 1
    28    9   38 1
    29   10   39 1
    30   10   40 1
    31   11   12 1
    32   11   41 1
    33   11   42 1
    34   12   43 1
    35   12   44 1
    36   12   59 1
    37   13   17 1
    38   13   14 1
    39   14   15 1
    40   14   45 1
    41   14   46 1
    42   15   16 1
    43   15   47 1
    44   15   48 1
    45   16   17 1
    46   16   49 1
    47   16   50 1
    48   17   18 1
    49   17   19 1
    50   19   20 1
    51   19   51 1
    52   19   52 1
    53   20   21 1
    54   20   22 1
    55   20   60 1
    56   21   53 1
    57   21   54 1
    58   21   55 1
    59   22   56 1
    60   22   57 1
    61   22   58 1
@<TRIPOS>MOLECULE
ZINC62978119
   58    60     0     0     0
SMALL
USER_CHARGES

@<TRIPOS>ATOM
      1 C1          4.6294    0.9770    1.6755 C.3       1 <0>        -0.1601
      2 C2          4.4574   -0.5187    1.9475 C.3       1 <0>        -0.1209
      3 C3          2.9772   -0.8277    2.1809 C.3       1 <0>        -0.0881
      4 H1          2.3933   -0.4702    1.3327 H         1 <0>         0.0784
      5 C4          2.5049   -0.1273    3.4565 C.3       1 <0>        -0.1294
      6 C5          1.0247   -0.4363    3.6899 C.3       1 <0>        -0.1333
      7 C6          0.8363   -1.9474    3.8381 C.3       1 <0>        -0.1031
      8 H2         -0.2182   -2.1675    4.0043 H         1 <0>         0.0908
      9 C7          1.3086   -2.6478    2.5624 C.3       1 <0>         0.0823
     10 H3          0.7247   -2.2903    1.7142 H         1 <0>         0.0710
     11 C8          2.7888   -2.3388    2.3291 C.3       1 <0>        -0.1167
     12 N1          1.1277   -4.0986    2.7047 N.3       1 <0>        -0.5022
     13 C9          1.5570   -4.8119    1.4743 C.3       1 <0>         0.0273
     14 C10         0.8358   -6.1751    1.5432 C.3       1 <0>        -0.1442
     15 C11        -0.3926   -5.9335    2.4445 C.3       1 <0>         0.0197
     16 H4         -0.3427   -6.5667    3.3303 H         1 <0>         0.1498
     17 C12        -0.3103   -4.4447    2.8443 C.3       1 <0>         0.0106
     18 N2         -1.6314   -6.1962    1.6998 N.4       1 <0>        -0.3807
     19 C13        -1.6509   -7.5979    1.2644 C.3       1 <0>        -0.0103
     20 C14        -2.9002   -7.8561    0.4194 C.3       1 <0>        -0.1467
     21 C15        -4.1471   -7.5633    1.2588 C.3       1 <0>        -0.1406
     22 C16        -4.0796   -6.1211    1.7694 C.3       1 <0>        -0.1467
     23 C17        -2.7866   -5.9271    2.5644 C.3       1 <0>        -0.0066
     24 C18         1.6559   -2.4492    5.0286 C.3       1 <0>        -0.0118
     25 N3          1.1181   -1.8760    6.2697 N.4       1 <0>        -0.6403
     26 H5          4.2703    1.5460    2.5331 H         1 <0>         0.0561
     27 H6          5.6839    1.1971    1.5092 H         1 <0>         0.0623
     28 H7          4.0566    1.2536    0.7903 H         1 <0>         0.0571
     29 H8          4.8165   -1.0877    1.0899 H         1 <0>         0.0680
     30 H9          5.0302   -0.7953    2.8327 H         1 <0>         0.0637
     31 H10         3.0888   -0.4848    4.3047 H         1 <0>         0.0630
     32 H11         2.6391    0.9492    3.3509 H         1 <0>         0.0866
     33 H12         0.6883    0.0627    4.5987 H         1 <0>         0.0684
     34 H13         0.4408   -0.0788    2.8417 H         1 <0>         0.0910
     35 H14         3.1252   -2.8378    1.4203 H         1 <0>         0.0785
     36 H15         3.3726   -2.6963    3.1772 H         1 <0>         0.0771
     37 H16         1.2447   -4.2610    0.5870 H         1 <0>         0.0643
     38 H17         2.6378   -4.9532    1.4743 H         1 <0>         0.1102
     39 H18         0.5195   -6.4868    0.5477 H         1 <0>         0.0961
     40 H19         1.4887   -6.9268    1.9866 H         1 <0>         0.1155
     41 H20        -0.6354   -4.3096    3.8759 H         1 <0>         0.1072
     42 H21        -0.9147   -3.8364    2.1715 H         1 <0>         0.0686
     43 H22        -0.7613   -7.8055    0.6698 H         1 <0>         0.1320
     44 H23        -1.6629   -8.2492    2.1383 H         1 <0>         0.1314
     45 H24        -2.8890   -7.2054   -0.4550 H         1 <0>         0.0879
     46 H25        -2.9137   -8.8977    0.0986 H         1 <0>         0.1164
     47 H26        -5.0383   -7.6912    0.6445 H         1 <0>         0.0978
     48 H27        -4.1854   -8.2483    2.1058 H         1 <0>         0.0837
     49 H28        -4.0930   -5.4344    0.9230 H         1 <0>         0.0873
     50 H29        -4.9362   -5.9226    2.4135 H         1 <0>         0.1142
     51 H30        -2.7744   -6.6141    3.4106 H         1 <0>         0.1303
     52 H31        -2.7355   -4.9014    2.9295 H         1 <0>         0.1234
     53 H32         1.5992   -3.5366    5.0763 H         1 <0>         0.1446
     54 H33         2.6955   -2.1444    4.9083 H         1 <0>         0.1414
     55 H34         1.6586   -2.2069    7.0548 H         1 <0>         0.4420
     56 H35         1.1706   -0.8693    6.2256 H         1 <0>         0.4344
     57 H36         0.1558   -2.1581    6.3811 H         1 <0>         0.4319
     58 H37        -1.6704   -5.5943    0.8910 H         1 <0>         0.4193
@<TRIPOS>BOND
     1    1    2 1
     2    1   26 1
     3    1   27 1
     4    1   28 1
     5    2    3 1
     6    2   29 1
     7    2   30 1
     8    3    4 1
     9    3   11 1
    10    3    5 1
    11    5    6 1
    12    5   31 1
    13    5   32 1
    14    6    7 1
    15    6   33 1
    16    6   34 1
    17    7    8 1
    18    7    9 1
    19    7   24 1
    20    9   10 1
    21    9   11 1
    22    9   12 1
    23   11   35 1
    24   11   36 1
    25   12   17 1
    26   12   13 1
    27   13   14 1
    28   13   37 1
    29   13   38 1
    30   14   15 1
    31   14   39 1
    32   14   40 1
    33   15   16 1
    34   15   17 1
    35   15   18 1
    36   17   41 1
    37   17   42 1
    38   18   23 1
    39   18   19 1
    40   18   58 1
    41   19   20 1
    42   19   43 1
    43   19   44 1
    44   20   21 1
    45   20   45 1
    46   20   46 1
    47   21   22 1
    48   21   47 1
    49   21   48 1
    50   22   23 1
    51   22   49 1
    52   22   50 1
    53   23   51 1
    54   23   52 1
    55   24   25 1
    56   24   53 1
    57   24   54 1
    58   25   55 1
    59   25   56 1
    60   25   57 1
@<TRIPOS>MOLECULE
ZINC37916357
   59    61     0     0     0
SMALL
USER_CHARGES

@<TRIPOS>ATOM
      1 C1          2.0316    1.8662   -0.9751 C.3       1 <0>        -0.1623
      2 C2          1.2364    2.0882    0.3130 C.3       1 <0>        -0.0865
      3 H1          1.0940    3.1570    0.4725 H         1 <0>         0.0941
      4 C3         -0.1271    1.4041    0.1949 C.3       1 <0>        -0.1272
      5 C4          0.0728   -0.0962   -0.0289 C.3       1 <0>        -0.1202
      6 C5          0.8408   -0.6904    1.1535 C.3       1 <0>        -0.1004
      7 H2          0.2742   -0.5322    2.0711 H         1 <0>         0.0964
      8 C6          2.2042   -0.0063    1.2715 C.3       1 <0>         0.0219
      9 H3          2.7708   -0.1645    0.3539 H         1 <0>         0.1447
     10 C7          2.0044    1.4940    1.4954 C.3       1 <0>        -0.1337
     11 N1          2.9416   -0.5768    2.4068 N.4       1 <0>        -0.3796
     12 C8          2.2410   -0.2537    3.6555 C.3       1 <0>        -0.0236
     13 C9          2.9603   -0.9138    4.8338 C.3       1 <0>        -0.1426
     14 C10         4.3984   -0.3923    4.9039 C.3       1 <0>        -0.1490
     15 C11         5.0968   -0.6685    3.5693 C.3       1 <0>        -0.1319
     16 H4          5.1523   -1.7443    3.4033 H         1 <0>         0.1174
     17 C12         4.2984   -0.0175    2.4378 C.3       1 <0>        -0.0059
     18 C13         6.5099   -0.0828    3.6012 C.3       1 <0>         0.0333
     19 H5          6.4640    0.9842    3.8189 H         1 <0>         0.1526
     20 C14         7.2041   -0.3121    2.2422 C.3       1 <0>        -0.1471
     21 C15         8.6660   -0.6374    2.6470 C.3       1 <0>        -0.1437
     22 C16         8.4575   -1.4345    3.9587 C.3       1 <0>        -0.0098
     23 N2          7.3145   -0.7700    4.6280 N.4       1 <0>        -0.5144
     24 C17         1.0406   -2.1907    0.9296 C.3       1 <0>        -0.0982
     25 C18        -0.3185   -2.8932    0.9391 C.3       1 <0>        -0.1572
     26 C19         1.7231   -2.4184   -0.4207 C.3       1 <0>        -0.1656
     27 H6          2.1740    0.7973   -1.1345 H         1 <0>         0.0559
     28 H7          1.4845    2.2895   -1.8174 H         1 <0>         0.0730
     29 H8          3.0030    2.3535   -0.8910 H         1 <0>         0.0591
     30 H9         -0.6936    1.5622    1.1126 H         1 <0>         0.0712
     31 H10        -0.6742    1.8274   -0.6474 H         1 <0>         0.0837
     32 H11        -0.8986   -0.5836   -0.1130 H         1 <0>         0.0906
     33 H12         0.6393   -0.2544   -0.9466 H         1 <0>         0.0834
     34 H13         2.9757    1.9813    1.5795 H         1 <0>         0.0833
     35 H14         1.4378    1.6521    2.4130 H         1 <0>         0.0893
     36 H15         2.2302    0.8271    3.7963 H         1 <0>         0.1378
     37 H16         1.2167   -0.6227    3.6028 H         1 <0>         0.1409
     38 H17         2.4396   -0.6712    5.7602 H         1 <0>         0.1247
     39 H18         2.9715   -1.9948    4.6941 H         1 <0>         0.0930
     40 H19         4.3881    0.6808    5.0947 H         1 <0>         0.1000
     41 H20         4.9320   -0.9013    5.7066 H         1 <0>         0.0920
     42 H21         4.7929   -0.2120    1.4861 H         1 <0>         0.1396
     43 H22         4.2437    1.0583    2.6046 H         1 <0>         0.1425
     44 H23         6.7534   -1.1538    1.7164 H         1 <0>         0.1019
     45 H24         7.1647    0.5904    1.6323 H         1 <0>         0.1206
     46 H25         9.1532   -1.2518    1.8899 H         1 <0>         0.1247
     47 H26         9.2326    0.2755    2.8307 H         1 <0>         0.1059
     48 H27         8.2167   -2.4742    3.7368 H         1 <0>         0.1373
     49 H28         9.3482   -1.3756    4.5842 H         1 <0>         0.1454
     50 H29         7.6552   -0.0976    5.2987 H         1 <0>         0.4394
     51 H30         1.6651   -2.5968    1.7254 H         1 <0>         0.0550
     52 H31        -0.9686   -2.4369    0.1925 H         1 <0>         0.0716
     53 H32        -0.1832   -3.9494    0.7061 H         1 <0>         0.0693
     54 H33        -0.7721   -2.7938    1.9252 H         1 <0>         0.0614
     55 H34         1.0986   -2.0124   -1.2165 H         1 <0>         0.0774
     56 H35         2.6914   -1.9179   -0.4274 H         1 <0>         0.0466
     57 H36         1.8654   -3.4873   -0.5801 H         1 <0>         0.0719
     58 H37         2.9944   -1.5791    2.3027 H         1 <0>         0.4213
     59 H38         6.7477   -1.4596    5.0983 H         1 <0>         0.4283
@<TRIPOS>BOND
     1    1    2 1
     2    1   27 1
     3    1   28 1
     4    1   29 1
     5    2    3 1
     6    2   10 1
     7    2    4 1
     8    4    5 1
     9    4   30 1
    10    4   31 1
    11    5    6 1
    12    5   32 1
    13    5   33 1
    14    6    7 1
    15    6    8 1
    16    6   24 1
    17    8    9 1
    18    8   10 1
    19    8   11 1
    20   10   34 1
    21   10   35 1
    22   11   17 1
    23   11   12 1
    24   11   58 1
    25   12   13 1
    26   12   36 1
    27   12   37 1
    28   13   14 1
    29   13   38 1
    30   13   39 1
    31   14   15 1
    32   14   40 1
    33   14   41 1
    34   15   16 1
    35   15   17 1
    36   15   18 1
    37   17   42 1
    38   17   43 1
    39   18   19 1
    40   18   23 1
    41   18   20 1
    42   20   21 1
    43   20   44 1
    44   20   45 1
    45   21   22 1
    46   21   46 1
    47   21   47 1
    48   22   23 1
    49   22   48 1
    50   22   49 1
    51   23   50 1
    52   23   59 1
    53   24   25 1
    54   24   26 1
    55   24   51 1
    56   25   52 1
    57   25   53 1
    58   25   54 1
    59   26   55 1
    60   26   56 1
    61   26   57 1
@<TRIPOS>MOLECULE
ZINC44533308
   59    61     0     0     0
SMALL
USER_CHARGES

@<TRIPOS>ATOM
      1 C1         -0.0178    1.4648    0.0101 C.3       1 <0>        -0.0501
      2 N1          0.0021   -0.0041    0.0020 N.4       1 <0>        -0.3827
      3 C2         -1.3756   -0.5106    0.0035 C.3       1 <0>        -0.0138
      4 C3         -1.3615   -2.0381   -0.0867 C.3       1 <0>        -0.1447
      5 C4         -0.6051   -2.6081    1.1167 C.3       1 <0>        -0.1520
      6 C5          0.8066   -2.0155    1.1472 C.3       1 <0>        -0.1401
      7 H1          1.3489   -2.3207    0.2523 H         1 <0>         0.1173
      8 C6          0.7122   -0.4888    1.1916 C.3       1 <0>        -0.0005
      9 C7          1.5454   -2.5189    2.3888 C.3       1 <0>        -0.0084
     10 N2          1.7364   -3.9721    2.2893 N.4       1 <0>        -0.5104
     11 C8          2.4457   -4.4555    3.4814 C.3       1 <0>         0.0304
     12 H2          1.9038   -4.1486    4.3760 H         1 <0>         0.1465
     13 C9          3.8560   -3.8629    3.5111 C.3       1 <0>        -0.1438
     14 C10         4.6166   -4.2937    2.2554 C.3       1 <0>        -0.1332
     15 C11         4.7057   -5.8205    2.2117 C.3       1 <0>        -0.1352
     16 C12         3.2954   -6.4130    2.1821 C.3       1 <0>        -0.1312
     17 C13         2.5348   -5.9823    3.4378 C.3       1 <0>        -0.1058
     18 H3          3.0611   -6.3409    4.3223 H         1 <0>         0.1256
     19 C14         1.1245   -6.5748    3.4081 C.3       1 <0>        -0.0924
     20 C15         0.3638   -6.1440    4.6638 C.3       1 <0>        -0.1238
     21 C16        -1.0464   -6.7366    4.6342 C.3       1 <0>        -0.1204
     22 C17        -0.9573   -8.2633    4.5905 C.3       1 <0>        -0.1280
     23 C18        -0.1967   -8.6941    3.3348 C.3       1 <0>        -0.1228
     24 C19         1.2136   -8.1016    3.3645 C.3       1 <0>        -0.1171
     25 H4          1.0047    1.8421    0.0024 H         1 <0>         0.1288
     26 H5         -0.5450    1.8259   -0.8730 H         1 <0>         0.1324
     27 H6         -0.5280    1.8163    0.9069 H         1 <0>         0.1266
     28 H7         -1.8732   -0.2060    0.9241 H         1 <0>         0.1347
     29 H8         -1.9135   -0.1015   -0.8518 H         1 <0>         0.1415
     30 H9         -2.3852   -2.4123   -0.0837 H         1 <0>         0.1248
     31 H10        -0.8642   -2.3438   -1.0072 H         1 <0>         0.0946
     32 H11        -1.1305   -2.3457    2.0350 H         1 <0>         0.1007
     33 H12        -0.5433   -3.6927    1.0279 H         1 <0>         0.0899
     34 H13         1.7157   -0.0637    1.2136 H         1 <0>         0.1422
     35 H14         0.1701   -0.1847    2.0870 H         1 <0>         0.1410
     36 H15         2.5165   -2.0287    2.4575 H         1 <0>         0.1468
     37 H16         0.9589   -2.2897    3.2785 H         1 <0>         0.1449
     38 H17         0.8375   -4.4259    2.2257 H         1 <0>         0.4253
     39 H18         3.7925   -2.7752    3.5422 H         1 <0>         0.0869
     40 H19         4.3823   -4.2216    4.3956 H         1 <0>         0.1183
     41 H20         4.0903   -3.9350    1.3708 H         1 <0>         0.0506
     42 H21         5.6214   -3.8716    2.2765 H         1 <0>         0.0952
     43 H22         5.2476   -6.1274    1.3171 H         1 <0>         0.0835
     44 H23         5.2320   -6.1792    3.0963 H         1 <0>         0.0839
     45 H24         2.7692   -6.0543    1.2975 H         1 <0>         0.0532
     46 H25         3.3589   -7.5007    2.1510 H         1 <0>         0.0995
     47 H26         0.5982   -6.2161    2.5236 H         1 <0>         0.0582
     48 H27         0.8901   -6.5027    5.5484 H         1 <0>         0.0801
     49 H28         0.3004   -5.0563    4.6949 H         1 <0>         0.0514
     50 H29        -1.5884   -6.4297    5.5288 H         1 <0>         0.0708
     51 H30        -1.5727   -6.3779    3.7496 H         1 <0>         0.0585
     52 H31        -0.4311   -8.6220    5.4751 H         1 <0>         0.0684
     53 H32        -1.9621   -8.6855    4.5694 H         1 <0>         0.0701
     54 H33        -0.1332   -9.7818    3.3037 H         1 <0>         0.0731
     55 H34        -0.7230   -8.3354    2.4503 H         1 <0>         0.0606
     56 H35         1.7555   -8.4085    2.4699 H         1 <0>         0.0717
     57 H36         1.7399   -8.4603    4.2490 H         1 <0>         0.0749
     58 H37         2.2793   -4.1843    1.4658 H         1 <0>         0.4260
     59 H38         0.4767   -0.3284   -0.8272 H         1 <0>         0.4275
@<TRIPOS>BOND
     1    1    2 1
     2    1   25 1
     3    1   26 1
     4    1   27 1
     5    2    8 1
     6    2    3 1
     7    2   59 1
     8    3    4 1
     9    3   28 1
    10    3   29 1
    11    4    5 1
    12    4   30 1
    13    4   31 1
    14    5    6 1
    15    5   32 1
    16    5   33 1
    17    6    7 1
    18    6    8 1
    19    6    9 1
    20    8   34 1
    21    8   35 1
    22    9   10 1
    23    9   36 1
    24    9   37 1
    25   10   11 1
    26   10   38 1
    27   10   58 1
    28   11   12 1
    29   11   17 1
    30   11   13 1
    31   13   14 1
    32   13   39 1
    33   13   40 1
    34   14   15 1
    35   14   41 1
    36   14   42 1
    37   15   16 1
    38   15   43 1
    39   15   44 1
    40   16   17 1
    41   16   45 1
    42   16   46 1
    43   17   18 1
    44   17   19 1
    45   19   24 1
    46   19   20 1
    47   19   47 1
    48   20   21 1
    49   20   48 1
    50   20   49 1
    51   21   22 1
    52   21   50 1
    53   21   51 1
    54   22   23 1
    55   22   52 1
    56   22   53 1
    57   23   24 1
    58   23   54 1
    59   23   55 1
    60   24   56 1
    61   24   57 1
@<TRIPOS>MOLECULE
ZINC52445246
   46    48     0     0     0
SMALL
USER_CHARGES

@<TRIPOS>ATOM
      1 C1          0.0484    1.2609   -0.5117 C.3       1 <0>        -0.1588
      2 C2          0.0649   -0.2626   -0.3715 C.3       1 <0>        -0.1520
      3 C3         -1.3721   -0.7862   -0.3269 C.3       1 <0>        -0.0142
      4 N1         -1.3563   -2.2489   -0.1923 N.4       1 <0>        -0.5128
      5 C4         -2.7359   -2.7516   -0.1495 C.3       1 <0>         0.0759
      6 C5         -2.7197   -4.2522   -0.0114 C.2       1 <0>        -0.2176
      7 C6         -2.6357   -4.9814    1.1103 C.2       1 <0>        -0.0982
      8 C7         -2.6368   -6.4342    1.0179 C.ar      1 <0>        -0.1460
      9 C8         -2.5571   -7.3888    2.0621 C.ar      1 <0>         0.1320
     10 C9         -2.5713   -8.7314    1.7826 C.ar      1 <0>        -0.1296
     11 C10        -2.6640   -9.1966    0.4775 C.ar      1 <0>        -0.0272
     12 C11        -2.7437   -8.2933   -0.5629 C.ar      1 <0>        -0.0768
     13 C12        -2.7300   -6.9404   -0.2958 C.ar      1 <0>        -0.0815
     14 S1         -2.8157   -5.4801   -1.3001 S.3       1 <0>         0.1861
     15 F1         -2.4658   -6.9726    3.3442 F         1 <0>        -0.1350
     16 C13        -2.5404   -4.3042    2.4532 C.3       1 <0>         0.0424
     17 N2         -3.8704   -4.2619    3.0757 N.4       1 <0>        -0.3563
     18 C14        -4.7527   -3.3916    2.2870 C.3       1 <0>        -0.0609
     19 C15        -3.7551   -3.7338    4.4416 C.3       1 <0>        -0.0944
     20 C16        -4.0201   -4.7006    5.5975 C.3       1 <0>        -0.1477
     21 C17        -5.0405   -3.6109    5.2623 C.3       1 <0>        -0.1483
     22 H1          1.0721    1.6339   -0.5435 H         1 <0>         0.0829
     23 H2         -0.4671    1.5355   -1.4320 H         1 <0>         0.0707
     24 H3         -0.4715    1.6986    0.3405 H         1 <0>         0.0680
     25 H4          0.5848   -0.7003   -1.2237 H         1 <0>         0.0912
     26 H5          0.5804   -0.5372    0.5488 H         1 <0>         0.0873
     27 H6         -1.8920   -0.3485    0.5253 H         1 <0>         0.1346
     28 H7         -1.8876   -0.5116   -1.2472 H         1 <0>         0.1412
     29 H8         -0.8750   -2.6541   -0.9811 H         1 <0>         0.4383
     30 H9         -3.2558   -2.3139    0.7027 H         1 <0>         0.1437
     31 H10        -3.2514   -2.4770   -1.0697 H         1 <0>         0.1645
     32 H11        -2.5087   -9.4413    2.5941 H         1 <0>         0.1606
     33 H12        -2.6733  -10.2580    0.2779 H         1 <0>         0.1664
     34 H13        -2.8158   -8.6443   -1.5817 H         1 <0>         0.1575
     35 H14        -1.8571   -4.8618    3.0937 H         1 <0>         0.1551
     36 H15        -2.1681   -3.2882    2.3221 H         1 <0>         0.1256
     37 H16        -4.7706   -3.7340    1.2524 H         1 <0>         0.1206
     38 H17        -5.7612   -3.4273    2.6991 H         1 <0>         0.1363
     39 H18        -4.3810   -2.3676    2.3244 H         1 <0>         0.1239
     40 H19        -2.9897   -2.9717    4.5879 H         1 <0>         0.1785
     41 H20        -4.2800   -5.7284    5.3444 H         1 <0>         0.1222
     42 H21        -3.4289   -4.5746    6.5045 H         1 <0>         0.1393
     43 H22        -5.1206   -2.7681    5.9488 H         1 <0>         0.1392
     44 H23        -5.9717   -3.9219    4.7887 H         1 <0>         0.1212
     45 H24        -4.2569   -5.1934    3.1067 H         1 <0>         0.4266
     46 H25        -0.8791   -2.5031    0.6596 H         1 <0>         0.4253
@<TRIPOS>BOND
     1    1    2 1
     2    1   22 1
     3    1   23 1
     4    1   24 1
     5    2    3 1
     6    2   25 1
     7    2   26 1
     8    3    4 1
     9    3   27 1
    10    3   28 1
    11    4    5 1
    12    4   29 1
    13    4   46 1
    14    5    6 1
    15    5   30 1
    16    5   31 1
    17    6   14 1
    18    6    7 2
    19    7    8 1
    20    7   16 1
    21    8   13 ar
    22    8    9 ar
    23    9   10 ar
    24    9   15 1
    25   10   11 ar
    26   10   32 1
    27   11   12 ar
    28   11   33 1
    29   12   13 ar
    30   12   34 1
    31   13   14 1
    32   16   17 1
    33   16   35 1
    34   16   36 1
    35   17   18 1
    36   17   19 1
    37   17   45 1
    38   18   37 1
    39   18   38 1
    40   18   39 1
    41   19   21 1
    42   19   20 1
    43   19   40 1
    44   20   21 1
    45   20   41 1
    46   20   42 1
    47   21   43 1
    48   21   44 1
@<TRIPOS>MOLECULE
ZINC61645975
   54    55     0     0     0
SMALL
USER_CHARGES

@<TRIPOS>ATOM
      1 C1         -0.2105    1.3839    0.1981 C.3       1 <0>        -0.1328
      2 C2         -0.2008   -0.1200    0.1034 C.ar      1 <0>        -0.0018
      3 C3         -0.0565   -0.7329   -1.1260 C.ar      1 <0>        -0.1844
      4 C4         -0.0473   -2.1191   -1.2124 C.ar      1 <0>         0.2635
      5 C5         -0.1834   -2.8846   -0.0610 C.ar      1 <0>        -0.2119
      6 C6         -0.3273   -2.2655    1.1648 C.ar      1 <0>        -0.0299
      7 C7         -0.3307   -0.8849    1.2478 C.ar      1 <0>        -0.2180
      8 C8         -0.4817   -0.2127    2.5882 C.3       1 <0>         0.0456
      9 N1         -1.8739    0.2219    2.7639 N.4       1 <0>        -0.5095
     10 C9         -2.0211    0.8771    4.0704 C.3       1 <0>         0.0217
     11 C10        -3.4378    1.4398    4.2021 C.3       1 <0>        -0.1857
     12 C11        -1.7719   -0.1427    5.1834 C.3       1 <0>        -0.1845
     13 N2          0.0980   -2.7421   -2.4540 N.pl3     1 <0>        -0.6182
     14 C12         0.1410   -2.0575   -3.7590 C.3       1 <0>         0.1029
     15 C13        -0.3086   -3.1287   -4.7837 C.3       1 <0>        -0.1296
     16 C14         0.3412   -4.4108   -4.1995 C.3       1 <0>        -0.1522
     17 C15         0.2397   -4.1886   -2.6756 C.3       1 <0>         0.1207
     18 H1         -0.6332   -4.7109   -2.2840 H         1 <0>         0.0965
     19 C16         1.5072   -4.6987   -1.9870 C.3       1 <0>        -0.0332
     20 N3          1.6082   -6.1536   -2.1627 N.4       1 <0>        -0.3845
     21 C17         2.8970   -6.6222   -1.6361 C.3       1 <0>        -0.0483
     22 C18         0.5140   -6.8117   -1.4363 C.3       1 <0>        -0.0563
     23 H2          0.8084    1.7458    0.3364 H         1 <0>         0.0948
     24 H3         -0.6236    1.8032   -0.7193 H         1 <0>         0.0884
     25 H4         -0.8231    1.6907    1.0458 H         1 <0>         0.0529
     26 H5          0.0487   -0.1349   -2.0192 H         1 <0>         0.1362
     27 H6         -0.1770   -3.9627   -0.1247 H         1 <0>         0.1225
     28 H7         -0.4334   -2.8600    2.0602 H         1 <0>         0.1344
     29 H8         -0.2179   -0.9152    3.3787 H         1 <0>         0.1376
     30 H9          0.1782    0.6534    2.6366 H         1 <0>         0.1359
     31 H10        -2.1182    0.8722    2.0321 H         1 <0>         0.4231
     32 H11        -1.2986    1.6890    4.1532 H         1 <0>         0.1398
     33 H12        -4.1603    0.6278    4.1193 H         1 <0>         0.0817
     34 H13        -3.5470    1.9259    5.1715 H         1 <0>         0.1094
     35 H14        -3.6153    2.1663    3.4092 H         1 <0>         0.0817
     36 H15        -1.8811    0.3434    6.1528 H         1 <0>         0.1082
     37 H16        -2.4944   -0.9546    5.1006 H         1 <0>         0.0815
     38 H17        -0.7626   -0.5436    5.0896 H         1 <0>         0.0802
     39 H18        -0.5474   -1.2124   -3.7670 H         1 <0>         0.0874
     40 H19         1.1550   -1.7239   -3.9792 H         1 <0>         0.0769
     41 H20        -1.3948   -3.2166   -4.8060 H         1 <0>         0.0880
     42 H21         0.0845   -2.9091   -5.7764 H         1 <0>         0.1019
     43 H22        -0.2169   -5.2975   -4.5002 H         1 <0>         0.0993
     44 H23         1.3845   -4.4883   -4.5056 H         1 <0>         0.0881
     45 H24         2.3797   -4.2179   -2.4295 H         1 <0>         0.1369
     46 H25         1.4629   -4.4633   -0.9237 H         1 <0>         0.1332
     47 H26         2.9665   -6.3786   -0.5759 H         1 <0>         0.1227
     48 H27         2.9719   -7.7018   -1.7664 H         1 <0>         0.1308
     49 H28         3.7089   -6.1339   -2.1751 H         1 <0>         0.1256
     50 H29        -0.4408   -6.4112   -1.7770 H         1 <0>         0.1223
     51 H30         0.5461   -7.8847   -1.6252 H         1 <0>         0.1323
     52 H31         0.6248   -6.6274   -0.3677 H         1 <0>         0.1233
     53 H32        -2.4848   -0.5799    2.7190 H         1 <0>         0.4246
     54 H33         1.5438   -6.3792   -3.1441 H         1 <0>         0.4282
@<TRIPOS>BOND
     1    1    2 1
     2    1   23 1
     3    1   24 1
     4    1   25 1
     5    2    7 ar
     6    2    3 ar
     7    3    4 ar
     8    3   26 1
     9    4    5 ar
    10    4   13 1
    11    5    6 ar
    12    5   27 1
    13    6    7 ar
    14    6   28 1
    15    7    8 1
    16    8    9 1
    17    8   29 1
    18    8   30 1
    19    9   10 1
    20    9   31 1
    21    9   53 1
    22   10   11 1
    23   10   12 1
    24   10   32 1
    25   11   33 1
    26   11   34 1
    27   11   35 1
    28   12   36 1
    29   12   37 1
    30   12   38 1
    31   13   17 1
    32   13   14 1
    33   14   15 1
    34   14   39 1
    35   14   40 1
    36   15   16 1
    37   15   41 1
    38   15   42 1
    39   16   17 1
    40   16   43 1
    41   16   44 1
    42   17   18 1
    43   17   19 1
    44   19   20 1
    45   19   45 1
    46   19   46 1
    47   20   21 1
    48   20   22 1
    49   20   54 1
    50   21   47 1
    51   21   48 1
    52   21   49 1
    53   22   50 1
    54   22   51 1
    55   22   52 1
@<TRIPOS>MOLECULE
ZINC62982381
   57    59     0     0     0
SMALL
USER_CHARGES

@<TRIPOS>ATOM
      1 C1         -0.0187    1.5258    0.0104 C.3       1 <0>        -0.1567
      2 C2          0.0021   -0.0041    0.0020 C.3       1 <0>        -0.0907
      3 C3         -1.4333   -0.5336    0.0129 C.3       1 <0>        -0.1570
      4 C4          0.7182   -0.4975   -1.2568 C.3       1 <0>        -0.0883
      5 H1          0.1910   -0.1364   -2.1398 H         1 <0>         0.0571
      6 C5          2.1536    0.0321   -1.2676 C.3       1 <0>        -0.1294
      7 C6          2.8697   -0.4613   -2.5264 C.3       1 <0>        -0.1706
      8 C7          2.8905   -1.9912   -2.5349 C.3       1 <0>         0.0965
      9 H2          3.4007   -2.3427   -3.4317 H         1 <0>         0.0714
     10 C8          1.4551   -2.5207   -2.5240 C.3       1 <0>         0.0366
     11 H3          1.4699   -3.6106   -2.5300 H         1 <0>         0.1484
     12 C9          0.7390   -2.0273   -1.2652 C.3       1 <0>        -0.1387
     13 N1          0.7446   -2.0341   -3.7141 N.4       1 <0>        -0.3894
     14 C10        -0.6116   -2.6355   -3.7917 C.3       1 <0>        -0.0079
     15 C11        -1.0051   -2.5170   -5.2798 C.3       1 <0>        -0.1664
     16 C12         0.3329   -2.4286   -6.0424 C.3       1 <0>         0.0049
     17 H4          0.3995   -1.4836   -6.5817 H         1 <0>         0.1747
     18 C13         1.4223   -2.5011   -4.9509 C.3       1 <0>        -0.0290
     19 N2          0.4649   -3.5569   -6.9737 N.4       1 <0>        -0.3785
     20 C14        -0.6258   -3.5098   -7.9548 C.3       1 <0>        -0.0126
     21 C15        -0.5400   -4.7276   -8.8774 C.3       1 <0>        -0.1464
     22 C16         0.8061   -4.7144   -9.6073 C.3       1 <0>        -0.1431
     23 C17         1.9359   -4.6885   -8.5738 C.3       1 <0>        -0.1464
     24 C18         1.7583   -3.4722   -7.6625 C.3       1 <0>        -0.0147
     25 O1          3.5816   -2.4645   -1.3772 O.3       1 <0>        -0.5418
     26 H5          1.0039    1.9031    0.0027 H         1 <0>         0.0617
     27 H6         -0.5459    1.8868   -0.8726 H         1 <0>         0.0545
     28 H7         -0.5289    1.8773    0.9072 H         1 <0>         0.0668
     29 H8          0.5293   -0.3651    0.8851 H         1 <0>         0.0831
     30 H9         -1.9605   -0.1726   -0.8702 H         1 <0>         0.0527
     31 H10        -1.4185   -1.6235    0.0069 H         1 <0>         0.0554
     32 H11        -1.9435   -0.1821    0.9097 H         1 <0>         0.0692
     33 H12         2.1388    1.1220   -1.2617 H         1 <0>         0.0879
     34 H13         2.6808   -0.3290   -0.3846 H         1 <0>         0.0906
     35 H14         2.3426   -0.1002   -3.4095 H         1 <0>         0.0603
     36 H15         3.8923   -0.0840   -2.5342 H         1 <0>         0.0993
     37 H16         1.2661   -2.3884   -0.3821 H         1 <0>         0.1277
     38 H17        -0.2836   -2.4046   -1.2575 H         1 <0>         0.0934
     39 H18        -0.5812   -3.6821   -3.4887 H         1 <0>         0.1482
     40 H19        -1.3108   -2.0784   -3.1681 H         1 <0>         0.1569
     41 H20        -1.5631   -3.3986   -5.5952 H         1 <0>         0.1348
     42 H21        -1.5952   -1.6155   -5.4447 H         1 <0>         0.1410
     43 H22         2.2545   -1.8427   -5.2001 H         1 <0>         0.1645
     44 H23         1.7709   -3.5266   -4.8294 H         1 <0>         0.1523
     45 H24        -1.5832   -3.5161   -7.4337 H         1 <0>         0.1348
     46 H25        -0.5417   -2.5989   -8.5475 H         1 <0>         0.1376
     47 H26        -0.6243   -5.6392   -8.2857 H         1 <0>         0.0908
     48 H27        -1.3497   -4.6899   -9.6062 H         1 <0>         0.1210
     49 H28         0.8958   -5.6094  -10.2230 H         1 <0>         0.1018
     50 H29         0.8696   -3.8282  -10.2389 H         1 <0>         0.0861
     51 H30         1.9030   -5.5992   -7.9758 H         1 <0>         0.0907
     52 H31         2.8960   -4.6228   -9.0856 H         1 <0>         0.1203
     53 H32         1.7916   -2.5621   -8.2614 H         1 <0>         0.1385
     54 H33         2.5612   -3.4506   -6.9255 H         1 <0>         0.1279
     55 H34         4.4998   -2.1670   -1.3182 H         1 <0>         0.4084
     56 H35         0.6858   -1.0269   -3.7027 H         1 <0>         0.4354
     57 H36         0.4149   -4.4237   -6.4596 H         1 <0>         0.4244
@<TRIPOS>BOND
     1    1    2 1
     2    1   26 1
     3    1   27 1
     4    1   28 1
     5    2    3 1
     6    2    4 1
     7    2   29 1
     8    3   30 1
     9    3   31 1
    10    3   32 1
    11    4    5 1
    12    4   12 1
    13    4    6 1
    14    6    7 1
    15    6   33 1
    16    6   34 1
    17    7    8 1
    18    7   35 1
    19    7   36 1
    20    8    9 1
    21    8   10 1
    22    8   25 1
    23   10   11 1
    24   10   12 1
    25   10   13 1
    26   12   37 1
    27   12   38 1
    28   13   18 1
    29   13   14 1
    30   13   56 1
    31   14   15 1
    32   14   39 1
    33   14   40 1
    34   15   16 1
    35   15   41 1
    36   15   42 1
    37   16   17 1
    38   16   18 1
    39   16   19 1
    40   18   43 1
    41   18   44 1
    42   19   24 1
    43   19   20 1
    44   19   57 1
    45   20   21 1
    46   20   45 1
    47   20   46 1
    48   21   22 1
    49   21   47 1
    50   21   48 1
    51   22   23 1
    52   22   49 1
    53   22   50 1
    54   23   24 1
    55   23   51 1
    56   23   52 1
    57   24   53 1
    58   24   54 1
    59   25   55 1
@<TRIPOS>MOLECULE
ZINC33521077
   39    40     0     0     0
SMALL
USER_CHARGES
2-(4-aminobutanoylamino)-4,5,6,7-tetrahydrobenzothiophene-3-carboxamide
@<TRIPOS>ATOM
      1 C1          7.0701    0.0490    0.3915 C.3       1 <0>        -0.1227
      2 C2          6.7258   -1.1840   -0.4490 C.3       1 <0>        -0.1165
      3 C3          5.3227   -1.6719   -0.0600 C.3       1 <0>        -0.0402
      4 C4          4.4007   -0.4919   -0.0436 C.2       1 <0>        -0.1961
      5 C5          4.7481    0.8134   -0.0393 C.2       1 <0>        -0.0676
      6 C6          3.6368    1.7494   -0.0290 C.2       1 <0>        -0.2122
      7 C7          2.3536    1.2214   -0.0139 C.2       1 <0>         0.0602
      8 S1          2.6304   -0.4889   -0.0263 S.3       1 <0>         0.2158
      9 N1          1.1435    1.8983    0.0013 N.am      1 <0>        -0.6287
     10 C8         -0.0144    1.2086    0.0087 C.2       1 <0>         0.5077
     11 O1          0.0021   -0.0041    0.0020 O.2       1 <0>        -0.5059
     12 C9         -1.3296    1.9443    0.0189 C.3       1 <0>        -0.1355
     13 C10        -2.4789    0.9343    0.0189 C.3       1 <0>        -0.1398
     14 C11        -3.8141    1.6813    0.0293 C.3       1 <0>        -0.0023
     15 N2         -4.9176    0.7116    0.0292 N.4       1 <0>        -0.6872
     16 C12         3.8629    3.1981   -0.0307 C.2       1 <0>         0.5818
     17 O2          3.9698    3.7986    1.0226 O.2       1 <0>        -0.5409
     18 N3          3.9522    3.8648   -1.1986 N.am      1 <0>        -0.8702
     19 C13         6.2121    1.2358   -0.0503 C.3       1 <0>        -0.0627
     20 H1          8.1337    0.2950    0.2563 H         1 <0>         0.0737
     21 H2          6.8762   -0.1690    1.4521 H         1 <0>         0.0681
     22 H3          6.7452   -0.9174   -1.5160 H         1 <0>         0.0689
     23 H4          7.4631   -1.9771   -0.2557 H         1 <0>         0.0773
     24 H5          4.9746   -2.4117   -0.7959 H         1 <0>         0.0830
     25 H6          5.3590   -2.1355    0.9369 H         1 <0>         0.0853
     26 H7          1.1286    2.9982    0.0073 H         1 <0>         0.4467
     27 H8         -1.3922    2.5710    0.9208 H         1 <0>         0.1125
     28 H9         -1.4007    2.5807   -0.8755 H         1 <0>         0.1120
     29 H10        -2.4163    0.3076   -0.8830 H         1 <0>         0.0974
     30 H11        -2.4078    0.2979    0.9133 H         1 <0>         0.0975
     31 H12        -3.8766    2.3079    0.9312 H         1 <0>         0.1303
     32 H13        -3.8852    2.3178   -0.8650 H         1 <0>         0.1301
     33 H14        -5.8776    1.2486    0.0367 H         1 <0>         0.4614
     34 H15        -4.8465    0.0751    0.9236 H         1 <0>         0.4582
     35 H16         4.1218    4.9516   -1.1999 H         1 <0>         0.4253
     36 H17         3.8555    3.3221   -2.1505 H         1 <0>         0.4222
     37 H18         6.3632    2.0759    0.6436 H         1 <0>         0.0766
     38 H19         6.5044    1.5418   -1.0656 H         1 <0>         0.0784
     39 H20        -4.8550    0.0850   -0.8727 H         1 <0>         0.4578
@<TRIPOS>BOND
     1    1   19 1
     2    1    2 1
     3    1   20 1
     4    1   21 1
     5    2    3 1
     6    2   22 1
     7    2   23 1
     8    3    4 1
     9    3   24 1
    10    3   25 1
    11    4    8 1
    12    4    5 2
    13    5    6 1
    14    5   19 1
    15    6    7 2
    16    6   16 1
    17    7    8 1
    18    7    9 1
    19    9   10 am
    20    9   26 1
    21   10   11 2
    22   10   12 1
    23   12   13 1
    24   12   27 1
    25   12   28 1
    26   13   14 1
    27   13   29 1
    28   13   30 1
    29   14   15 1
    30   14   31 1
    31   14   32 1
    32   15   33 1
    33   15   34 1
    34   15   39 1
    35   16   17 2
    36   16   18 am
    37   18   35 1
    38   18   36 1
    39   19   37 1
    40   19   38 1
@<TRIPOS>MOLECULE
ZINC40225889
   36    38     0     0     0
SMALL
USER_CHARGES

@<TRIPOS>ATOM
      1 C1         -0.0167    1.3779    0.0096 C.ar      1 <0>        -0.1337
      2 C2          1.1696    2.0886    0.0021 C.ar      1 <0>        -0.1201
      3 C3          2.3802    1.4154   -0.0130 C.ar      1 <0>         0.1021
      4 C4          2.3990    0.0236   -0.0206 C.ar      1 <0>         0.0981
      5 C5          1.2071   -0.6822   -0.0130 C.ar      1 <0>        -0.1120
      6 C6          0.0021   -0.0041    0.0020 C.ar      1 <0>        -0.1249
      7 C7         -1.2936   -0.7736    0.0102 C.3       1 <0>        -0.0898
      8 C8         -1.7458   -1.0263   -1.4294 C.3       1 <0>         0.1362
      9 H1         -0.9475   -1.5252   -1.9788 H         1 <0>         0.1757
     10 C9         -2.9739   -1.8997   -1.4243 C.2       1 <0>         0.2181
     11 N1         -4.1523   -1.5908   -2.0296 N.pl3     1 <0>        -0.6067
     12 H2         -4.3466   -0.7840   -2.5317 H         1 <0>         0.4185
     13 C10        -5.0208   -2.6392   -1.7967 C.ar      1 <0>         0.0731
     14 C11        -6.3377   -2.8984   -2.1511 C.ar      1 <0>        -0.1022
     15 C12        -6.9375   -4.0726   -1.7502 C.ar      1 <0>        -0.0662
     16 C13        -6.2333   -4.9998   -0.9927 C.ar      1 <0>        -0.0368
     17 C14        -4.9265   -4.7594   -0.6320 C.ar      1 <0>        -0.0428
     18 C15        -4.3036   -3.5736   -1.0310 C.ar      1 <0>         0.0541
     19 N2         -3.0599   -3.0615   -0.8449 N.2       1 <0>        -0.4258
     20 Cl1        -7.0069   -6.4725   -0.4965 Cl        1 <0>        -0.0379
     21 N3         -2.0588    0.2549   -2.0764 N.4       1 <0>        -0.6430
     22 O1          3.5850   -0.6417   -0.0359 O.3       1 <0>        -0.4844
     23 O2          3.5476    2.1129   -0.0209 O.3       1 <0>        -0.4852
     24 H3         -0.9598    1.9038    0.0259 H         1 <0>         0.1306
     25 H4          1.1522    3.1684    0.0077 H         1 <0>         0.1439
     26 H5          1.2190   -1.7621   -0.0189 H         1 <0>         0.1449
     27 H6         -1.1467   -1.7271    0.5175 H         1 <0>         0.1391
     28 H7         -2.0555   -0.1967    0.5344 H         1 <0>         0.1059
     29 H8         -6.8911   -2.1813   -2.7394 H         1 <0>         0.1423
     30 H9         -7.9621   -4.2731   -2.0266 H         1 <0>         0.1534
     31 H10        -4.3848   -5.4843   -0.0427 H         1 <0>         0.1513
     32 H11        -1.2366    0.8397   -2.0799 H         1 <0>         0.4494
     33 H12        -2.3570    0.0883   -3.0258 H         1 <0>         0.4382
     34 H13         3.9367   -0.8389    0.8430 H         1 <0>         0.4003
     35 H14         3.8938    2.3101    0.8602 H         1 <0>         0.4006
     36 H15        -2.7979    0.7168   -1.5679 H         1 <0>         0.4355
@<TRIPOS>BOND
     1    1    6 ar
     2    1    2 ar
     3    1   24 1
     4    2    3 ar
     5    2   25 1
     6    3    4 ar
     7    3   23 1
     8    4    5 ar
     9    4   22 1
    10    5    6 ar
    11    5   26 1
    12    6    7 1
    13    7    8 1
    14    7   27 1
    15    7   28 1
    16    8    9 1
    17    8   10 1
    18    8   21 1
    19   10   19 2
    20   10   11 1
    21   11   12 1
    22   11   13 1
    23   13   18 ar
    24   13   14 ar
    25   14   15 ar
    26   14   29 1
    27   15   16 ar
    28   15   30 1
    29   16   17 ar
    30   16   20 1
    31   17   18 ar
    32   17   31 1
    33   18   19 1
    34   21   32 1
    35   21   33 1
    36   21   36 1
    37   22   34 1
    38   23   35 1
@<TRIPOS>MOLECULE
ZINC43126402
   33    34     0     0     0
SMALL
USER_CHARGES

@<TRIPOS>ATOM
      1 C1         -1.2358   -1.0579   -0.1925 C.3       1 <0>        -0.2024
      2 C2          0.1479   -0.4076   -0.2513 C.3       1 <0>         0.0345
      3 H1          0.0480    0.6315   -0.5650 H         1 <0>         0.1596
      4 C3          0.7963   -0.4623    1.1334 C.3       1 <0>        -0.0403
      5 H2          1.7485    0.0677    1.1099 H         1 <0>         0.1387
      6 C4          1.0307   -1.8993    1.5220 C.2       1 <0>        -0.1609
      7 C5          2.3087   -2.4261    1.5232 C.2       1 <0>        -0.1743
      8 C6          2.4849   -3.7225    1.8778 C.2       1 <0>        -0.1487
      9 S1          0.8124   -4.2408    2.2260 S.3       1 <0>         0.1247
     10 C7         -0.0078   -2.6931    1.8808 C.2       1 <0>        -0.1627
     11 S2         -0.3017    0.3207    2.3466 S.3       1 <0>         0.0721
     12 C8         -0.2421    2.0325    1.9332 C.2       1 <0>         0.3871
     13 N1         -0.9191    2.9291    2.7036 N.am      1 <0>        -0.6168
     14 H3         -1.4268    2.6218    3.4709 H         1 <0>         0.4232
     15 C9         -0.8846    4.2438    2.4017 C.2       1 <0>         0.5397
     16 O1         -1.4882    5.0542    3.0871 O.2       1 <0>        -0.5266
     17 C10        -0.1456    4.6625    1.2910 C.2       1 <0>        -0.3777
     18 C11         0.5265    3.7093    0.5385 C.2       1 <0>         0.4504
     19 N2          0.4606    2.4199    0.8885 N.2       1 <0>        -0.5894
     20 N3          1.2646    4.0911   -0.5638 N.pl3     1 <0>        -0.8285
     21 N4          0.9885   -1.1312   -1.2145 N.4       1 <0>        -0.6297
     22 H4         -1.8188   -0.5998    0.6065 H         1 <0>         0.1167
     23 H5         -1.7465   -0.9121   -1.1444 H         1 <0>         0.0926
     24 H6         -1.1279   -2.1249    0.0022 H         1 <0>         0.0908
     25 H7          3.1540   -1.8141    1.2454 H         1 <0>         0.1434
     26 H8          3.3998   -4.2937    1.9346 H         1 <0>         0.1981
     27 H9         -1.0588   -2.4521    1.9412 H         1 <0>         0.1989
     28 H10        -0.0988    5.7078    1.0236 H         1 <0>         0.1555
     29 H11         1.3144    5.0271   -0.8137 H         1 <0>         0.4219
     30 H12         1.7336    3.4235   -1.0884 H         1 <0>         0.4027
     31 H13         0.6096   -1.0184   -2.1429 H         1 <0>         0.4392
     32 H14         1.9267   -0.7610   -1.1868 H         1 <0>         0.4355
     33 H15         1.0064   -2.1113   -0.9755 H         1 <0>         0.4327
@<TRIPOS>BOND
     1    1    2 1
     2    1   22 1
     3    1   23 1
     4    1   24 1
     5    2    3 1
     6    2    4 1
     7    2   21 1
     8    4    5 1
     9    4    6 1
    10    4   11 1
    11    6   10 2
    12    6    7 1
    13    7    8 2
    14    7   25 1
    15    8    9 1
    16    8   26 1
    17    9   10 1
    18   10   27 1
    19   11   12 1
    20   12   19 2
    21   12   13 1
    22   13   14 1
    23   13   15 am
    24   15   16 2
    25   15   17 1
    26   17   18 2
    27   17   28 1
    28   18   19 1
    29   18   20 1
    30   20   29 1
    31   20   30 1
    32   21   31 1
    33   21   32 1
    34   21   33 1
@<TRIPOS>MOLECULE
ZINC49564276
   44    46     0     0     0
SMALL
USER_CHARGES

@<TRIPOS>ATOM
      1 C1         -0.0167    1.3833    0.0096 C.ar      1 <0>        -0.2221
      2 C2          1.1775    2.0905    0.0020 C.ar      1 <0>         0.2454
      3 C3          2.3875    1.4075   -0.0132 C.ar      1 <0>        -0.1372
      4 C4          2.4027    0.0259   -0.0207 C.ar      1 <0>        -0.5755
      5 C5          1.2159   -0.6810   -0.0137 C.ar      1 <0>        -0.1419
      6 C6          0.0021   -0.0041    0.0020 C.ar      1 <0>         0.2304
      7 N1         -1.1974   -0.7196    0.0101 N.pl3     1 <0>        -0.7343
      8 C7         -2.4763   -0.0052    0.0266 C.3       1 <0>         0.1420
      9 H1         -2.3985    0.9154    0.6049 H         1 <0>         0.1150
     10 C8         -2.9678    0.2867   -1.4182 C.3       1 <0>        -0.1679
     11 C9         -4.4970    0.0478   -1.3765 C.3       1 <0>        -0.0069
     12 N2         -4.8183   -0.2518    0.0199 N.4       1 <0>        -0.3878
     13 C10        -3.6004   -0.9032    0.5715 C.3       1 <0>         0.0238
     14 H2         -3.4995   -1.9221    0.1977 H         1 <0>         0.1474
     15 C11        -3.7183   -0.8804    2.0894 C.3       1 <0>        -0.1371
     16 C12        -4.9376   -1.7353    2.4700 C.3       1 <0>        -0.1395
     17 C13        -6.1907   -1.2330    1.7536 C.3       1 <0>        -0.1483
     18 C14        -5.9508   -1.1397    0.2372 C.3       1 <0>        -0.0017
     19 S1          3.9392   -0.8362   -0.0400 S.o2      1 <0>         2.6986
     20 O1          3.6788   -2.1181   -0.5953 O.2       1 <0>        -0.9595
     21 O2          4.8975    0.0541   -0.5953 O.2       1 <0>        -0.9566
     22 N3          4.3813   -1.0843    1.5365 N.pl3     1 <0>        -1.2483
     23 N4          1.1630    3.4871    0.0092 N.pl3     1 <0>        -0.8693
     24 H3         -0.9585    1.9117    0.0260 H         1 <0>         0.1239
     25 H4          3.3171    1.9572   -0.0195 H         1 <0>         0.1434
     26 H5          1.2313   -1.7609   -0.0200 H         1 <0>         0.1410
     27 H6         -1.1836   -1.6895    0.0048 H         1 <0>         0.4107
     28 H7         -2.7531    1.3202   -1.6899 H         1 <0>         0.1079
     29 H8         -2.4966   -0.3972   -2.1241 H         1 <0>         0.1129
     30 H9         -5.0263    0.9440   -1.6999 H         1 <0>         0.1356
     31 H10        -4.7629   -0.7965   -2.0126 H         1 <0>         0.1323
     32 H11        -2.8175   -1.3001    2.5372 H         1 <0>         0.1160
     33 H12        -3.8618    0.1436    2.4344 H         1 <0>         0.0915
     34 H13        -4.7526   -2.7715    2.1868 H         1 <0>         0.0831
     35 H14        -5.0930   -1.6801    3.5475 H         1 <0>         0.0971
     36 H15        -7.0137   -1.9215    1.9449 H         1 <0>         0.1142
     37 H16        -6.4522   -0.2467    2.1370 H         1 <0>         0.0883
     38 H17        -6.8365   -0.7348   -0.2525 H         1 <0>         0.1325
     39 H18        -5.7266   -2.1285   -0.1631 H         1 <0>         0.1294
     40 H19         3.8133   -0.7656    2.2553 H         1 <0>         0.4165
     41 H20         5.2082   -1.5483    1.7410 H         1 <0>         0.4240
     42 H21         0.3180    3.9633    0.0195 H         1 <0>         0.4008
     43 H22         1.9980    3.9808    0.0039 H         1 <0>         0.4077
     44 H23        -4.9725    0.6123    0.5177 H         1 <0>         0.4225
@<TRIPOS>BOND
     1    1    6 ar
     2    1    2 ar
     3    1   24 1
     4    2    3 ar
     5    2   23 1
     6    3    4 ar
     7    3   25 1
     8    4    5 ar
     9    4   19 1
    10    5    6 ar
    11    5   26 1
    12    6    7 1
    13    7    8 1
    14    7   27 1
    15    8    9 1
    16    8   13 1
    17    8   10 1
    18   10   11 1
    19   10   28 1
    20   10   29 1
    21   11   12 1
    22   11   30 1
    23   11   31 1
    24   12   18 1
    25   12   13 1
    26   12   44 1
    27   13   14 1
    28   13   15 1
    29   15   16 1
    30   15   32 1
    31   15   33 1
    32   16   17 1
    33   16   34 1
    34   16   35 1
    35   17   18 1
    36   17   36 1
    37   17   37 1
    38   18   38 1
    39   18   39 1
    40   19   20 2
    41   19   21 2
    42   19   22 1
    43   22   40 1
    44   22   41 1
    45   23   42 1
    46   23   43 1
@<TRIPOS>MOLECULE
ZINC63176602
   34    35     0     0     0
SMALL
USER_CHARGES

@<TRIPOS>ATOM
      1 C1         -0.0169    1.3933    0.0097 C.ar      1 <0>        -0.0028
      2 C2          1.1664    2.0968    0.0022 C.ar      1 <0>        -0.1805
      3 C3          2.3811    1.4182   -0.0131 C.ar      1 <0>         0.2341
      4 C4          2.4041    0.0251   -0.0208 C.ar      1 <0>        -0.1112
      5 C5          1.2239   -0.6839   -0.0138 C.ar      1 <0>        -0.0282
      6 C6          0.0021   -0.0041    0.0020 C.ar      1 <0>        -0.1615
      7 C7         -1.2645   -0.7604    0.0105 C.2       1 <0>         0.5641
      8 O1         -2.3263   -0.1681    0.0243 O.2       1 <0>        -0.5318
      9 N1         -1.2446   -2.1080    0.0031 N.am      1 <0>        -0.8489
     10 Cl1         3.9219   -0.8173   -0.0398 Cl        1 <0>        -0.0637
     11 N2          3.5751    2.1322   -0.0211 N.pl3     1 <0>        -0.7565
     12 C8          3.5526    3.5970   -0.0135 C.3       1 <0>         0.1286
     13 H1          2.7066    3.9542    0.5737 H         1 <0>         0.1257
     14 C9          3.4570    4.1316   -1.4574 C.3       1 <0>        -0.1474
     15 C10         4.3451    5.4005   -1.4523 C.3       1 <0>        -0.1233
     16 C11         5.5259    4.9876   -0.5390 C.3       1 <0>        -0.1448
     17 C12         4.8676    4.1413    0.5716 C.3       1 <0>         0.0188
     18 H2          4.6597    4.7633    1.4422 H         1 <0>         0.1593
     19 N3          5.7502    3.0285    0.9467 N.4       1 <0>        -0.6382
     20 H3         -0.9591    1.9209    0.0260 H         1 <0>         0.1510
     21 H4          1.1519    3.1767    0.0078 H         1 <0>         0.1423
     22 H5          1.2418   -1.7637   -0.0201 H         1 <0>         0.1435
     23 H6         -0.3976   -2.5806   -0.0078 H         1 <0>         0.4002
     24 H7         -2.0774   -2.6054    0.0087 H         1 <0>         0.4115
     25 H8          4.4224    1.6602   -0.0317 H         1 <0>         0.3863
     26 H9          3.8454    3.3969   -2.1627 H         1 <0>         0.0868
     27 H10         2.4262    4.3884   -1.7016 H         1 <0>         0.0947
     28 H11         4.6966    5.6300   -2.4582 H         1 <0>         0.0945
     29 H12         3.8062    6.2475   -1.0277 H         1 <0>         0.0890
     30 H13         6.2485    4.3912   -1.0960 H         1 <0>         0.0915
     31 H14         6.0051    5.8691   -0.1130 H         1 <0>         0.1064
     32 H15         5.9556    2.4722    0.1303 H         1 <0>         0.4300
     33 H16         6.6092    3.3946    1.3290 H         1 <0>         0.4425
     34 H17         5.2920    2.4543    1.6383 H         1 <0>         0.4380
@<TRIPOS>BOND
     1    1    6 ar
     2    1    2 ar
     3    1   20 1
     4    2    3 ar
     5    2   21 1
     6    3    4 ar
     7    3   11 1
     8    4    5 ar
     9    4   10 1
    10    5    6 ar
    11    5   22 1
    12    6    7 1
    13    7    8 2
    14    7    9 am
    15    9   23 1
    16    9   24 1
    17   11   12 1
    18   11   25 1
    19   12   13 1
    20   12   17 1
    21   12   14 1
    22   14   15 1
    23   14   26 1
    24   14   27 1
    25   15   16 1
    26   15   28 1
    27   15   29 1
    28   16   17 1
    29   16   30 1
    30   16   31 1
    31   17   18 1
    32   17   19 1
    33   19   32 1
    34   19   33 1
    35   19   34 1
@<TRIPOS>MOLECULE
ZINC35411533
   32    33     0     0     0
SMALL
USER_CHARGES

@<TRIPOS>ATOM
      1 C1         -0.0187    1.5258    0.0104 C.3       1 <0>        -0.1692
      2 C2          0.0021   -0.0041    0.0020 C.3       1 <0>        -0.0791
      3 C3          0.7421   -0.5109    1.2415 C.3       1 <0>        -0.1485
      4 C4         -1.4333   -0.5336    0.0129 C.3       1 <0>        -0.1632
      5 C5          0.7182   -0.4975   -1.2568 C.3       1 <0>         0.1473
      6 H1          0.7330   -1.5874   -1.2628 H         1 <0>         0.1722
      7 C6          2.1320    0.0241   -1.2675 C.2       1 <0>         0.1762
      8 N1          2.4691    1.2499   -1.5346 N.2       1 <0>        -0.4401
      9 C7          3.8226    1.3607   -1.4506 C.ar      1 <0>         0.0089
     10 C8          4.7187    2.4156   -1.6310 C.ar      1 <0>        -0.0488
     11 C9          6.0688    2.1999   -1.4688 C.ar      1 <0>        -0.1100
     12 C10         6.5432    0.9416   -1.1281 C.ar      1 <0>        -0.0635
     13 C11         5.6694   -0.1099   -0.9472 C.ar      1 <0>        -0.0976
     14 C12         4.3063    0.0896   -1.1056 C.ar      1 <0>         0.0330
     15 O1          3.2227   -0.7100   -0.9967 O.3       1 <0>        -0.1933
     16 N2          0.0077   -0.0109   -2.4469 N.4       1 <0>        -0.6297
     17 H2          1.0039    1.9031    0.0027 H         1 <0>         0.0844
     18 H3         -0.5459    1.8868   -0.8726 H         1 <0>         0.0564
     19 H4         -0.5289    1.8773    0.9072 H         1 <0>         0.0880
     20 H5          0.2319   -0.1594    2.1383 H         1 <0>         0.0864
     21 H6          0.7568   -1.6008    1.2356 H         1 <0>         0.0741
     22 H7          1.7647   -0.1336    1.2338 H         1 <0>         0.0629
     23 H8         -1.9605   -0.1726   -0.8702 H         1 <0>         0.0576
     24 H9         -1.4185   -1.6235    0.0069 H         1 <0>         0.0795
     25 H10        -1.9435   -0.1821    0.9097 H         1 <0>         0.0941
     26 H11         4.3545    3.3970   -1.8970 H         1 <0>         0.1445
     27 H12         6.7630    3.0154   -1.6082 H         1 <0>         0.1496
     28 H13         7.6044    0.7842   -1.0040 H         1 <0>         0.1533
     29 H14         6.0461   -1.0869   -0.6827 H         1 <0>         0.1456
     30 H15        -0.0060    0.9980   -2.4413 H         1 <0>         0.4428
     31 H16         0.4800   -0.3363   -3.2770 H         1 <0>         0.4410
     32 H17        -0.9389   -0.3601   -2.4397 H         1 <0>         0.4455
@<TRIPOS>BOND
     1    1    2 1
     2    1   17 1
     3    1   18 1
     4    1   19 1
     5    2    3 1
     6    2    4 1
     7    2    5 1
     8    3   20 1
     9    3   21 1
    10    3   22 1
    11    4   23 1
    12    4   24 1
    13    4   25 1
    14    5    6 1
    15    5    7 1
    16    5   16 1
    17    7   15 1
    18    7    8 2
    19    8    9 1
    20    9   14 ar
    21    9   10 ar
    22   10   11 ar
    23   10   26 1
    24   11   12 ar
    25   11   27 1
    26   12   13 ar
    27   12   28 1
    28   13   14 ar
    29   13   29 1
    30   14   15 1
    31   16   30 1
    32   16   31 1
    33   16   32 1
@<TRIPOS>MOLECULE
ZINC40434250
   29    30     0     0     0
SMALL
USER_CHARGES

@<TRIPOS>ATOM
      1 C1         -0.0158    1.3147    0.0093 C.2       1 <0>         0.0799
      2 C2          1.1851    1.9465    0.0012 C.2       1 <0>        -0.2155
      3 S1          2.2939    0.5470   -0.0169 S.3       1 <0>         0.1765
      4 C3          1.1311   -0.6697   -0.0123 C.2       1 <0>         0.0831
      5 N1          0.0021   -0.0041    0.0020 N.2       1 <0>        -0.5072
      6 Cl1         1.3693   -2.3893   -0.0238 Cl        1 <0>         0.0686
      7 C4          1.4966    3.4209    0.0057 C.3       1 <0>         0.1516
      8 N2          1.6108    3.8930    1.3921 N.3       1 <0>        -0.5274
      9 C5          2.7672    3.2841    2.0618 C.3       1 <0>         0.0350
     10 C6          2.7712    3.6832    3.5392 C.3       1 <0>        -0.1139
     11 C7          2.8381    5.2088    3.6506 C.3       1 <0>        -0.1442
     12 C8          1.6492    5.8199    2.9040 C.3       1 <0>         0.0275
     13 H1          0.7197    5.4935    3.3706 H         1 <0>         0.1527
     14 C9          1.6777    5.3590    1.4450 C.3       1 <0>         0.0333
     15 N3          1.7368    7.2853    2.9580 N.4       1 <0>        -0.6345
     16 H2         -0.9440    1.8666    0.0255 H         1 <0>         0.1814
     17 H3          2.4376    3.5950   -0.5161 H         1 <0>         0.0644
     18 H4          0.6962    3.9629   -0.4979 H         1 <0>         0.1111
     19 H5          2.7052    2.1991    1.9788 H         1 <0>         0.0930
     20 H6          3.6855    3.6325    1.5891 H         1 <0>         0.0497
     21 H7          1.8594    3.3231    4.0158 H         1 <0>         0.0863
     22 H8          3.6382    3.2438    4.0325 H         1 <0>         0.0942
     23 H9          2.7975    5.4995    4.7004 H         1 <0>         0.0940
     24 H10         3.7683    5.5659    3.2086 H         1 <0>         0.0861
     25 H11         2.6012    5.6976    0.9752 H         1 <0>         0.0609
     26 H12         0.8244    5.7809    0.9141 H         1 <0>         0.1027
     27 H13         2.5967    7.5870    2.5248 H         1 <0>         0.4328
     28 H14         0.9531    7.6875    2.4659 H         1 <0>         0.4378
     29 H15         1.7208    7.5880    3.9204 H         1 <0>         0.4402
@<TRIPOS>BOND
     1    1    5 1
     2    1    2 2
     3    1   16 1
     4    2    3 1
     5    2    7 1
     6    3    4 1
     7    4    5 2
     8    4    6 1
     9    7    8 1
    10    7   17 1
    11    7   18 1
    12    8   14 1
    13    8    9 1
    14    9   10 1
    15    9   19 1
    16    9   20 1
    17   10   11 1
    18   10   21 1
    19   10   22 1
    20   11   12 1
    21   11   23 1
    22   11   24 1
    23   12   13 1
    24   12   14 1
    25   12   15 1
    26   14   25 1
    27   14   26 1
    28   15   27 1
    29   15   28 1
    30   15   29 1
@<TRIPOS>MOLECULE
ZINC53873712
   41    43     0     0     0
SMALL
USER_CHARGES

@<TRIPOS>ATOM
      1 C1         -0.0189    1.5447    0.0105 C.3       1 <0>        -0.1279
      2 C2          1.4869    1.9070   -0.0019 C.3       1 <0>        -0.1090
      3 C3          2.1394    0.8439    0.9058 C.3       1 <0>        -0.1106
      4 H1          2.2491    1.2335    1.9178 H         1 <0>         0.1102
      5 C4          1.1953   -0.3712    0.9083 C.3       1 <0>         0.0279
      6 H2          0.8468   -0.5713    1.9215 H         1 <0>         0.1469
      7 C5          0.0021   -0.0041    0.0020 C.3       1 <0>        -0.1433
      8 N1          1.8905   -1.5497    0.3737 N.4       1 <0>        -0.6388
      9 C6          3.5067    0.4453    0.3469 C.3       1 <0>         0.0299
     10 N2          4.4229    1.5905    0.4313 N.3       1 <0>        -0.5021
     11 C7          4.7746    1.8852    1.8367 C.3       1 <0>         0.0126
     12 C8          5.7750    3.0335    1.9341 C.3       1 <0>         0.0584
     13 O1          6.9046    2.8269    1.0667 O.3       1 <0>        -0.3657
     14 C9          6.4829    2.6423   -0.2725 C.3       1 <0>         0.0862
     15 H3          5.8696    3.4840   -0.5941 H         1 <0>         0.0773
     16 C10         5.6539    1.3284   -0.2993 C.3       1 <0>         0.0288
     17 H4          6.2112    0.5308    0.1919 H         1 <0>         0.0574
     18 C11         5.5250    1.0261   -1.7881 C.3       1 <0>        -0.1134
     19 C12         6.7940    1.6284   -2.4409 C.3       1 <0>        -0.1203
     20 C13         7.5767    2.3575   -1.3059 C.3       1 <0>        -0.1171
     21 H5         -0.4990    1.9195    0.9145 H         1 <0>         0.0828
     22 H6         -0.5161    1.9291   -0.8800 H         1 <0>         0.0893
     23 H7          1.8866    1.8418   -1.0139 H         1 <0>         0.0802
     24 H8          1.6425    2.9053    0.4072 H         1 <0>         0.0879
     25 H9         -0.9260   -0.4004    0.4139 H         1 <0>         0.0995
     26 H10         0.1620   -0.3779   -1.0093 H         1 <0>         0.0887
     27 H11         2.6955   -1.7540    0.9468 H         1 <0>         0.4337
     28 H12         1.2642   -2.3409    0.3792 H         1 <0>         0.4359
     29 H13         3.9086   -0.3851    0.9275 H         1 <0>         0.0350
     30 H14         3.3992    0.1420   -0.6945 H         1 <0>         0.0838
     31 H15         3.8696    2.1540    2.3815 H         1 <0>         0.0918
     32 H16         5.2099    0.9942    2.2892 H         1 <0>         0.0468
     33 H17         5.2781    3.9629    1.6561 H         1 <0>         0.0644
     34 H18         6.1263    3.1131    2.9629 H         1 <0>         0.1054
     35 H19         5.4904   -0.0508   -1.9530 H         1 <0>         0.0645
     36 H20         4.6308    1.4997   -2.1934 H         1 <0>         0.0768
     37 H21         7.4041    0.8358   -2.8741 H         1 <0>         0.0758
     38 H22         6.5136    2.3481   -3.2100 H         1 <0>         0.0751
     39 H23         8.0184    3.2867   -1.6658 H         1 <0>         0.0838
     40 H24         8.3411    1.7027   -0.8877 H         1 <0>         0.0787
     41 H25         2.1892   -1.3638   -0.5719 H         1 <0>         0.4323
@<TRIPOS>BOND
     1    1    7 1
     2    1    2 1
     3    1   21 1
     4    1   22 1
     5    2    3 1
     6    2   23 1
     7    2   24 1
     8    3    4 1
     9    3    5 1
    10    3    9 1
    11    5    6 1
    12    5    7 1
    13    5    8 1
    14    7   25 1
    15    7   26 1
    16    8   27 1
    17    8   28 1
    18    8   41 1
    19    9   10 1
    20    9   29 1
    21    9   30 1
    22   10   16 1
    23   10   11 1
    24   11   12 1
    25   11   31 1
    26   11   32 1
    27   12   13 1
    28   12   33 1
    29   12   34 1
    30   13   14 1
    31   14   15 1
    32   14   20 1
    33   14   16 1
    34   16   17 1
    35   16   18 1
    36   18   19 1
    37   18   35 1
    38   18   36 1
    39   19   20 1
    40   19   37 1
    41   19   38 1
    42   20   39 1
    43   20   40 1
@<TRIPOS>MOLECULE
ZINC36262398
   38    39     0     0     0
SMALL
USER_CHARGES

@<TRIPOS>ATOM
      1 C1         -0.0187    1.5258    0.0104 C.3       1 <0>        -0.1549
      2 C2          0.0021   -0.0041    0.0020 C.3       1 <0>        -0.1123
      3 C3          0.7182   -0.4975   -1.2568 C.3       1 <0>        -0.1346
      4 C4          0.7386   -2.0043   -1.2651 C.2       1 <0>         0.5265
      5 O1          0.2305   -2.6227   -0.3539 O.2       1 <0>        -0.5257
      6 N1          1.3217   -2.6648   -2.2851 N.am      1 <0>        -0.6287
      7 C5          1.9798   -2.0433   -3.4487 C.3       1 <0>         0.1025
      8 C6          2.5008   -3.1928   -4.3203 C.3       1 <0>        -0.1019
      9 H1          1.7410   -3.4501   -5.0582 H         1 <0>         0.0988
     10 C7          3.7869   -2.8572   -5.0346 C.3       1 <0>        -0.1063
     11 C8          4.9405   -2.6594   -4.0518 C.3       1 <0>        -0.1436
     12 C9          5.1137   -3.9541   -3.2494 C.3       1 <0>         0.0246
     13 H2          5.2659   -4.7903   -3.9319 H         1 <0>         0.1454
     14 C10         3.8493   -4.1871   -2.4270 C.3       1 <0>        -0.1378
     15 C11         2.6546   -4.3638   -3.3311 C.3       1 <0>        -0.0916
     16 H3          2.6549   -5.3342   -3.8274 H         1 <0>         0.1144
     17 C12         1.4140   -4.1318   -2.4214 C.3       1 <0>         0.1041
     18 N2          6.2727   -3.8295   -2.3554 N.4       1 <0>        -0.6368
     19 H4          1.0039    1.9031    0.0027 H         1 <0>         0.0539
     20 H5         -0.5459    1.8868   -0.8726 H         1 <0>         0.0566
     21 H6         -0.5289    1.8773    0.9072 H         1 <0>         0.0627
     22 H7          0.5293   -0.3651    0.8851 H         1 <0>         0.0691
     23 H8         -1.0205   -0.3814    0.0098 H         1 <0>         0.0719
     24 H9          0.1910   -0.1364   -2.1398 H         1 <0>         0.0954
     25 H10         1.7408   -0.1202   -1.2645 H         1 <0>         0.0900
     26 H11         1.2611   -1.4455   -4.0093 H         1 <0>         0.0791
     27 H12         2.8098   -1.4185   -3.1190 H         1 <0>         0.0695
     28 H13         4.0367   -3.6688   -5.7180 H         1 <0>         0.0842
     29 H14         3.6469   -1.9409   -5.6082 H         1 <0>         0.0914
     30 H15         5.8571   -2.4410   -4.5997 H         1 <0>         0.0936
     31 H16         4.7105   -1.8359   -3.3757 H         1 <0>         0.0897
     32 H17         3.9785   -5.0810   -1.8168 H         1 <0>         0.0921
     33 H18         3.6833   -3.3299   -1.7746 H         1 <0>         0.0895
     34 H19         1.5642   -4.5958   -1.4466 H         1 <0>         0.0850
     35 H20         0.5168   -4.5269   -2.8978 H         1 <0>         0.0774
     36 H21         6.1264   -3.0590   -1.7206 H         1 <0>         0.4329
     37 H22         6.3845   -4.6828   -1.8287 H         1 <0>         0.4368
     38 H23         7.1033   -3.6611   -2.9031 H         1 <0>         0.4371
@<TRIPOS>BOND
     1    1    2 1
     2    1   19 1
     3    1   20 1
     4    1   21 1
     5    2    3 1
     6    2   22 1
     7    2   23 1
     8    3    4 1
     9    3   24 1
    10    3   25 1
    11    4    5 2
    12    4    6 am
    13    6   17 1
    14    6    7 1
    15    7    8 1
    16    7   26 1
    17    7   27 1
    18    8    9 1
    19    8   15 1
    20    8   10 1
    21   10   11 1
    22   10   28 1
    23   10   29 1
    24   11   12 1
    25   11   30 1
    26   11   31 1
    27   12   13 1
    28   12   14 1
    29   12   18 1
    30   14   15 1
    31   14   32 1
    32   14   33 1
    33   15   16 1
    34   15   17 1
    35   17   34 1
    36   17   35 1
    37   18   36 1
    38   18   37 1
    39   18   38 1
@<TRIPOS>MOLECULE
ZINC62940430
   45    47     0     0     0
SMALL
USER_CHARGES

@<TRIPOS>ATOM
      1 C1          2.1706    2.0123    1.0408 C.3       1 <0>        -0.1287
      2 C2          2.2156    0.5114    1.3342 C.3       1 <0>        -0.1185
      3 C3          2.8020   -0.2266    0.1290 C.3       1 <0>        -0.1400
      4 C4          1.9263    0.0269   -1.0997 C.3       1 <0>         0.0321
      5 H1          0.9167   -0.3361   -0.9075 H         1 <0>         0.1450
      6 C5          1.8814    1.5278   -1.3932 C.3       1 <0>         0.0748
      7 H2          2.8910    1.8908   -1.5854 H         1 <0>         0.0611
      8 C6          1.2949    2.2657   -0.1880 C.3       1 <0>        -0.1136
      9 N1          1.0406    1.7711   -2.5729 N.3       1 <0>        -0.8477
     10 N2          2.4894   -0.6816   -2.2569 N.4       1 <0>        -0.3824
     11 C7          2.3542   -2.1245   -2.0492 C.3       1 <0>        -0.0189
     12 C8          3.2137   -2.9977   -2.9477 C.3       1 <0>        -0.1412
     13 C9          3.1880   -2.4605   -4.3940 C.3       1 <0>         0.0899
     14 N3          4.2993   -1.5563   -4.5341 N.3       1 <0>        -0.6210
     15 C10         4.9527   -1.3885   -5.8272 C.3       1 <0>         0.0878
     16 C11         5.8493   -0.1320   -5.6726 C.3       1 <0>        -0.1325
     17 C12         5.5955    0.3699   -4.2228 C.3       1 <0>        -0.1108
     18 C13         4.2367   -0.2774   -3.8914 C.3       1 <0>         0.0939
     19 H3          3.4614    0.3065   -4.3874 H         1 <0>         0.0377
     20 C14         3.9061   -0.2994   -2.4166 C.3       1 <0>        -0.0076
     21 H4          1.7528    2.5380    1.8994 H         1 <0>         0.0844
     22 H5          3.1802    2.3753    0.8485 H         1 <0>         0.0699
     23 H6          2.8394    0.3308    2.2096 H         1 <0>         0.0872
     24 H7          1.2059    0.1483    1.5265 H         1 <0>         0.0769
     25 H8          3.8116    0.1365   -0.0632 H         1 <0>         0.0877
     26 H9          2.8340   -1.2959    0.3381 H         1 <0>         0.0908
     27 H10         0.2853    1.9027    0.0043 H         1 <0>         0.0849
     28 H11         1.2629    3.3350   -0.3970 H         1 <0>         0.0838
     29 H12         0.9116    2.7599   -2.7273 H         1 <0>         0.3717
     30 H13         2.6084   -2.3460   -1.0127 H         1 <0>         0.1288
     31 H14         1.3103   -2.3961   -2.2057 H         1 <0>         0.1252
     32 H15         4.2396   -2.9953   -2.5795 H         1 <0>         0.1003
     33 H16         2.8298   -4.0178   -2.9343 H         1 <0>         0.1160
     34 H17         3.2906   -3.2862   -5.0982 H         1 <0>         0.1033
     35 H18         2.2532   -1.9304   -4.5762 H         1 <0>         0.0355
     36 H19         5.5627   -2.2618   -6.0584 H         1 <0>         0.0861
     37 H20         4.2094   -1.2285   -6.6081 H         1 <0>         0.0485
     38 H21         6.8985   -0.3972   -5.8031 H         1 <0>         0.0860
     39 H22         5.5585    0.6316   -6.3939 H         1 <0>         0.0771
     40 H23         6.3719    0.0131   -3.5459 H         1 <0>         0.0873
     41 H24         5.5258    1.4573   -4.1940 H         1 <0>         0.0850
     42 H25         4.0682    0.6907   -1.9905 H         1 <0>         0.1379
     43 H26         4.5406   -1.0267   -1.9103 H         1 <0>         0.1414
     44 H27         1.4275    1.3249   -3.3910 H         1 <0>         0.3295
     45 H28         1.9796   -0.4180   -3.0867 H         1 <0>         0.4152
@<TRIPOS>BOND
     1    1    8 1
     2    1    2 1
     3    1   21 1
     4    1   22 1
     5    2    3 1
     6    2   23 1
     7    2   24 1
     8    3    4 1
     9    3   25 1
    10    3   26 1
    11    4    5 1
    12    4    6 1
    13    4   10 1
    14    6    7 1
    15    6    8 1
    16    6    9 1
    17    8   27 1
    18    8   28 1
    19    9   29 1
    20    9   44 1
    21   10   20 1
    22   10   11 1
    23   10   45 1
    24   11   12 1
    25   11   30 1
    26   11   31 1
    27   12   13 1
    28   12   32 1
    29   12   33 1
    30   13   14 1
    31   13   34 1
    32   13   35 1
    33   14   18 1
    34   14   15 1
    35   15   16 1
    36   15   36 1
    37   15   37 1
    38   16   17 1
    39   16   38 1
    40   16   39 1
    41   17   18 1
    42   17   40 1
    43   17   41 1
    44   18   19 1
    45   18   20 1
    46   20   42 1
    47   20   43 1
@<TRIPOS>MOLECULE
ZINC36141374
   35    37     0     0     0
SMALL
USER_CHARGES

@<TRIPOS>ATOM
      1 C1          0.2585    1.7588   -0.5547 C.ar      1 <0>        -0.0572
      2 C2          1.5172    2.3289   -0.5324 C.ar      1 <0>        -0.1738
      3 C3          2.6359    1.5277   -0.3654 C.ar      1 <0>         0.1729
      4 C4          2.4956    0.1528   -0.2188 C.ar      1 <0>        -0.1979
      5 C5          1.2352   -0.4155   -0.2392 C.ar      1 <0>         0.1445
      6 C6          0.1158    0.3939   -0.4098 C.ar      1 <0>        -0.1603
      7 O1          1.0508   -1.7531   -0.0897 O.3       1 <0>        -0.3050
      8 C7          2.1772   -2.6094   -0.2683 C.3       1 <0>         0.1133
      9 C8          2.5586   -2.6672   -1.7486 C.3       1 <0>        -0.1757
     10 C9          1.4152   -3.3047   -2.5412 C.3       1 <0>        -0.0036
     11 N1          1.1651   -4.6617   -2.0406 N.4       1 <0>        -0.5044
     12 C10         0.7230   -4.6028   -0.6421 C.3       1 <0>        -0.0066
     13 C11         1.8410   -4.0182    0.2244 C.3       1 <0>        -0.1313
     14 C12         3.3526   -2.0511    0.5415 C.3       1 <0>        -0.1827
     15 C13         3.7342   -0.6881   -0.0420 C.3       1 <0>         0.1639
     16 H1          4.2176   -0.8298   -1.0086 H         1 <0>         0.0698
     17 O2          4.6358   -0.0258    0.8472 O.3       1 <0>        -0.5501
     18 O3          3.8737    2.0884   -0.3445 O.3       1 <0>        -0.4885
     19 H2         -0.6143    2.3823   -0.6811 H         1 <0>         0.1411
     20 H3          1.6290    3.3972   -0.6454 H         1 <0>         0.1384
     21 H4         -0.8693   -0.0483   -0.4281 H         1 <0>         0.1359
     22 H5          2.7384   -1.6575   -2.1177 H         1 <0>         0.1192
     23 H6          3.4620   -3.2652   -1.8684 H         1 <0>         0.1068
     24 H7          0.5136   -2.7032   -2.4251 H         1 <0>         0.1358
     25 H8          1.6865   -3.3512   -3.5958 H         1 <0>         0.1380
     26 H9          0.4487   -5.0990   -2.6007 H         1 <0>         0.4349
     27 H10        -0.1622   -3.9712   -0.5674 H         1 <0>         0.1387
     28 H11         0.4822   -5.6075   -0.2948 H         1 <0>         0.1393
     29 H12         2.7261   -4.6501    0.1517 H         1 <0>         0.1103
     30 H13         1.5106   -3.9716    1.2621 H         1 <0>         0.1249
     31 H14         3.0579   -1.9349    1.5844 H         1 <0>         0.0984
     32 H15         4.2018   -2.7310    0.4728 H         1 <0>         0.0934
     33 H16         5.4898   -0.4690    0.9435 H         1 <0>         0.3877
     34 H17         4.1722    2.3499    0.5373 H         1 <0>         0.4031
     35 H18         2.0142   -5.2034   -2.1014 H         1 <0>         0.4269
@<TRIPOS>BOND
     1    1    6 ar
     2    1    2 ar
     3    1   19 1
     4    2    3 ar
     5    2   20 1
     6    3    4 ar
     7    3   18 1
     8    4   15 1
     9    4    5 ar
    10    5    6 ar
    11    5    7 1
    12    6   21 1
    13    7    8 1
    14    8   13 1
    15    8    9 1
    16    8   14 1
    17    9   10 1
    18    9   22 1
    19    9   23 1
    20   10   11 1
    21   10   24 1
    22   10   25 1
    23   11   12 1
    24   11   26 1
    25   11   35 1
    26   12   13 1
    27   12   27 1
    28   12   28 1
    29   13   29 1
    30   13   30 1
    31   14   15 1
    32   14   31 1
    33   14   32 1
    34   15   16 1
    35   15   17 1
    36   17   33 1
    37   18   34 1
@<TRIPOS>MOLECULE
ZINC41725920
   49    51     0     0     0
SMALL
USER_CHARGES

@<TRIPOS>ATOM
      1 C1         -0.4042    1.4688    0.0572 C.3       1 <0>        -0.1015
      2 C2         -0.1665   -0.0189    0.0225 C.2       1 <0>         0.0454
      3 C3         -0.1945   -0.7992   -1.0798 C.2       1 <0>        -0.1963
      4 C4          0.0788   -2.1116   -0.6677 C.2       1 <0>        -0.2433
      5 C5          0.2630   -2.0900    0.6721 C.2       1 <0>         0.0822
      6 N1          0.1199   -0.8085    1.0991 N.pl3     1 <0>        -0.4111
      7 C6          0.2480   -0.3503    2.4847 C.3       1 <0>         0.1280
      8 C7          0.8425    1.0594    2.5028 C.3       1 <0>        -0.1519
      9 C8          2.2226    1.0393    1.8426 C.3       1 <0>        -0.1140
     10 C9          3.1420    0.0882    2.6114 C.3       1 <0>         0.1037
     11 C10         2.5474   -1.3215    2.5933 C.3       1 <0>        -0.1566
     12 C11         1.1673   -1.3014    3.2535 C.3       1 <0>        -0.1501
     13 O1          4.4309    0.0694    1.9948 O.3       1 <0>        -0.5664
     14 C12         0.5759   -3.3116    1.5008 C.3       1 <0>        -0.0627
     15 C13         0.2365   -4.5577    0.6740 C.3       1 <0>        -0.0466
     16 C14         0.8800   -4.4439   -0.7107 C.3       1 <0>        -0.1328
     17 C15         0.1652   -3.3532   -1.5182 C.3       1 <0>         0.1177
     18 H1         -0.8380   -3.6891   -1.7806 H         1 <0>         0.1427
     19 N2          0.9262   -3.0635   -2.7408 N.4       1 <0>        -0.6332
     20 C16         0.7722   -5.8023    1.3844 C.3       1 <0>        -0.1489
     21 C17        -1.2818   -4.6711    0.5227 C.3       1 <0>        -0.1575
     22 H2          0.5532    1.9899    0.0560 H         1 <0>         0.0807
     23 H3         -0.9803    1.7653   -0.8194 H         1 <0>         0.0835
     24 H4         -0.9575    1.7274    0.9601 H         1 <0>         0.0775
     25 H5         -0.3912   -0.4731   -2.0904 H         1 <0>         0.1395
     26 H6         -0.7352   -0.3360    2.9550 H         1 <0>         0.0973
     27 H7          0.1876    1.7370    1.9551 H         1 <0>         0.1015
     28 H8          0.9378    1.4003    3.5337 H         1 <0>         0.0911
     29 H9          2.1273    0.6984    0.8117 H         1 <0>         0.0724
     30 H10         2.6462    2.0436    1.8555 H         1 <0>         0.0780
     31 H11         3.2373    0.4291    3.6423 H         1 <0>         0.0586
     32 H12         2.4521   -1.6624    1.5624 H         1 <0>         0.0753
     33 H13         3.2024   -1.9991    3.1410 H         1 <0>         0.0732
     34 H14         1.2627   -0.9605    4.2844 H         1 <0>         0.0921
     35 H15         0.7438   -2.3057    3.2406 H         1 <0>         0.0937
     36 H16         5.0670   -0.5141    2.4306 H         1 <0>         0.3817
     37 H17         1.6351   -3.3192    1.7581 H         1 <0>         0.0945
     38 H18        -0.0233   -3.3008    2.4113 H         1 <0>         0.0920
     39 H19         1.9330   -4.1840   -0.6018 H         1 <0>         0.0874
     40 H20         0.7930   -5.3975   -1.2314 H         1 <0>         0.0937
     41 H21         1.8568   -2.7615   -2.4941 H         1 <0>         0.4325
     42 H22         0.9821   -3.8964   -3.3075 H         1 <0>         0.4327
     43 H23         0.3134   -5.8840    2.3698 H         1 <0>         0.0679
     44 H24         0.5310   -6.6881    0.7968 H         1 <0>         0.0664
     45 H25         1.8538   -5.7216    1.4927 H         1 <0>         0.0618
     46 H26        -1.6638   -3.7843    0.0171 H         1 <0>         0.0635
     47 H27        -1.5232   -5.5568   -0.0650 H         1 <0>         0.0640
     48 H28        -1.7400   -4.7530    1.5084 H         1 <0>         0.0659
     49 H29         0.4625   -2.3335   -3.2606 H         1 <0>         0.4348
@<TRIPOS>BOND
     1    1    2 1
     2    1   22 1
     3    1   23 1
     4    1   24 1
     5    2    6 1
     6    2    3 2
     7    3    4 1
     8    3   25 1
     9    4   17 1
    10    4    5 2
    11    5    6 1
    12    5   14 1
    13    6    7 1
    14    7   12 1
    15    7    8 1
    16    7   26 1
    17    8    9 1
    18    8   27 1
    19    8   28 1
    20    9   10 1
    21    9   29 1
    22    9   30 1
    23   10   11 1
    24   10   13 1
    25   10   31 1
    26   11   12 1
    27   11   32 1
    28   11   33 1
    29   12   34 1
    30   12   35 1
    31   13   36 1
    32   14   15 1
    33   14   37 1
    34   14   38 1
    35   15   16 1
    36   15   20 1
    37   15   21 1
    38   16   17 1
    39   16   39 1
    40   16   40 1
    41   17   18 1
    42   17   19 1
    43   19   41 1
    44   19   42 1
    45   19   49 1
    46   20   43 1
    47   20   44 1
    48   20   45 1
    49   21   46 1
    50   21   47 1
    51   21   48 1
@<TRIPOS>MOLECULE
ZINC54502085
   28    30     0     0     0
SMALL
USER_CHARGES

@<TRIPOS>ATOM
      1 C1         -0.0167    1.3831    0.0096 C.ar      1 <0>        -0.1059
      2 C2          1.1487    2.0962    0.0023 C.ar      1 <0>        -0.0473
      3 C3          2.3751    1.4267   -0.0130 C.ar      1 <0>         0.0537
      4 C4          2.3957    0.0218   -0.0207 C.ar      1 <0>         0.0784
      5 C5          1.2012   -0.6868   -0.0139 C.ar      1 <0>        -0.0405
      6 C6          0.0021   -0.0041    0.0020 C.ar      1 <0>        -0.0613
      7 Cl1         1.2166   -2.4227   -0.0242 Cl        1 <0>        -0.0510
      8 N1          3.7284   -0.3397   -0.0350 N.pl3     1 <0>        -0.5741
      9 H1          4.0788   -1.2442   -0.0436 H         1 <0>         0.4323
     10 C7          4.4587    0.8079   -0.0355 C.2       1 <0>         0.2111
     11 N2          3.6681    1.8411   -0.0227 N.2       1 <0>        -0.4439
     12 C8          5.9643    0.8730   -0.0486 C.3       1 <0>         0.1642
     13 H2          6.3706   -0.1337   -0.1470 H         1 <0>         0.1561
     14 C9          6.4275    1.7277   -1.2300 C.3       1 <0>        -0.2033
     15 C10         7.1509    1.0169   -2.3756 C.3       1 <0>        -0.1429
     16 C11         7.9342    1.9165   -1.4175 C.3       1 <0>        -0.1715
     17 N3          6.4394    1.4724    1.2055 N.4       1 <0>        -0.6300
     18 H3         -0.9623    1.9047    0.0260 H         1 <0>         0.1525
     19 H4          1.1221    3.1758    0.0081 H         1 <0>         0.1460
     20 H5         -0.9279   -0.5532    0.0083 H         1 <0>         0.1534
     21 H6          5.7795    2.5658   -1.4866 H         1 <0>         0.1457
     22 H7          7.2967   -0.0597   -2.2876 H         1 <0>         0.1092
     23 H8          6.9787    1.3871   -3.3862 H         1 <0>         0.1182
     24 H9          8.2774    2.8786   -1.7978 H         1 <0>         0.1213
     25 H10         8.5954    1.4318   -0.6992 H         1 <0>         0.1046
     26 H11         7.4474    1.5160    1.1968 H         1 <0>         0.4420
     27 H12         6.0632    2.4042    1.2967 H         1 <0>         0.4453
     28 H13         6.1339    0.9087    1.9846 H         1 <0>         0.4379
@<TRIPOS>BOND
     1    1    6 ar
     2    1    2 ar
     3    1   18 1
     4    2    3 ar
     5    2   19 1
     6    3   11 1
     7    3    4 ar
     8    4    5 ar
     9    4    8 1
    10    5    6 ar
    11    5    7 1
    12    6   20 1
    13    8    9 1
    14    8   10 1
    15   10   11 2
    16   10   12 1
    17   12   13 1
    18   12   14 1
    19   12   17 1
    20   14   16 1
    21   14   15 1
    22   14   21 1
    23   15   16 1
    24   15   22 1
    25   15   23 1
    26   16   24 1
    27   16   25 1
    28   17   26 1
    29   17   27 1
    30   17   28 1
@<TRIPOS>MOLECULE
ZINC58110544
   38    39     0     0     0
SMALL
USER_CHARGES

@<TRIPOS>ATOM
      1 C1         -0.0187    1.5258    0.0104 C.3       1 <0>        -0.1591
      2 C2          0.0021   -0.0041    0.0020 C.3       1 <0>        -0.1345
      3 C3          0.7421   -0.5109    1.2415 C.3       1 <0>        -0.1132
      4 H1          1.7350   -0.0630    1.2804 H         1 <0>         0.1224
      5 C4         -0.0416   -0.1236    2.4973 C.3       1 <0>        -0.1713
      6 C5          0.8719   -2.0337    1.1708 C.3       1 <0>         0.0900
      7 H2          1.4302   -2.3096    0.2763 H         1 <0>         0.1542
      8 C6          1.6008   -2.5330    2.3917 C.ar      1 <0>        -0.1495
      9 C7          0.8922   -3.0772    3.4489 C.ar      1 <0>        -0.0713
     10 C8          1.5613   -3.5321    4.5624 C.ar      1 <0>        -0.1182
     11 C9          2.9463   -3.4531    4.6427 C.ar      1 <0>         0.1879
     12 C10         3.6535   -2.9040    3.5756 C.ar      1 <0>        -0.0780
     13 C11         2.9808   -2.4537    2.4567 C.ar      1 <0>         0.0166
     14 Cl1         3.8704   -1.7777    1.1281 Cl        1 <0>        -0.0284
     15 C12         5.1561   -2.8070    3.6395 C.3       1 <0>        -0.1308
     16 N1          3.3894   -3.9744    5.8587 N.am      1 <0>        -0.6574
     17 C13         2.3755   -4.4110    6.6248 C.2       1 <0>         0.5283
     18 O1          2.4680   -4.9093    7.7267 O.2       1 <0>        -0.4717
     19 C14         1.0961   -4.1642    5.8541 C.3       1 <0>        -0.1191
     20 N2         -0.4663   -2.6374    1.1185 N.4       1 <0>        -0.6375
     21 H3          1.0039    1.9031    0.0027 H         1 <0>         0.0648
     22 H4         -0.5459    1.8868   -0.8726 H         1 <0>         0.0674
     23 H5         -0.5289    1.8773    0.9072 H         1 <0>         0.0641
     24 H6         -1.0205   -0.3814    0.0098 H         1 <0>         0.0609
     25 H7          0.5123   -0.3556   -0.8948 H         1 <0>         0.0801
     26 H8         -1.0345   -0.5716    2.4584 H         1 <0>         0.0516
     27 H9          0.4856   -0.4847    3.3803 H         1 <0>         0.0756
     28 H10        -0.1341    0.9613    2.5476 H         1 <0>         0.0889
     29 H11        -0.1846   -3.1446    3.4002 H         1 <0>         0.1329
     30 H12         5.5966   -3.7150    3.2275 H         1 <0>         0.0887
     31 H13         5.4896   -1.9461    3.0601 H         1 <0>         0.0873
     32 H14         5.4688   -2.6900    4.6771 H         1 <0>         0.0756
     33 H15         4.3224   -4.0173    6.1208 H         1 <0>         0.4227
     34 H16         0.4464   -3.4810    6.4012 H         1 <0>         0.1354
     35 H17         0.5823   -5.1047    5.6557 H         1 <0>         0.1351
     36 H18        -0.3806   -3.6417    1.0719 H         1 <0>         0.4392
     37 H19        -0.9831   -2.3820    1.9466 H         1 <0>         0.4309
     38 H20        -0.9543   -2.3032    0.3011 H         1 <0>         0.4393
@<TRIPOS>BOND
     1    1    2 1
     2    1   21 1
     3    1   22 1
     4    1   23 1
     5    2    3 1
     6    2   24 1
     7    2   25 1
     8    3    4 1
     9    3    5 1
    10    3    6 1
    11    5   26 1
    12    5   27 1
    13    5   28 1
    14    6    7 1
    15    6    8 1
    16    6   20 1
    17    8   13 ar
    18    8    9 ar
    19    9   10 ar
    20    9   29 1
    21   10   19 1
    22   10   11 ar
    23   11   12 ar
    24   11   16 1
    25   12   13 ar
    26   12   15 1
    27   13   14 1
    28   15   30 1
    29   15   31 1
    30   15   32 1
    31   16   17 am
    32   16   33 1
    33   17   18 2
    34   17   19 1
    35   19   34 1
    36   19   35 1
    37   20   36 1
    38   20   37 1
    39   20   38 1
@<TRIPOS>MOLECULE
ZINC62201087
   32    33     0     0     0
SMALL
USER_CHARGES

@<TRIPOS>ATOM
      1 C1         -0.0187    1.5258    0.0104 C.3       1 <0>        -0.1851
      2 C2          0.0021   -0.0041    0.0020 C.3       1 <0>         0.0308
      3 H1          0.5123   -0.3556   -0.8948 H         1 <0>         0.1436
      4 C3          0.7421   -0.5109    1.2415 C.3       1 <0>        -0.0953
      5 C4          0.8700   -2.0108    1.1719 C.ar      1 <0>        -0.1490
      6 C5         -0.1190   -2.8134    1.7113 C.ar      1 <0>        -0.0896
      7 C6         -0.0044   -4.1879    1.6489 C.ar      1 <0>        -0.1068
      8 C7          1.1042   -4.7650    1.0437 C.ar      1 <0>         0.2117
      9 C8          2.0960   -3.9569    0.5028 C.ar      1 <0>        -0.1278
     10 C9          1.9728   -2.5815    0.5639 C.ar      1 <0>        -0.0430
     11 Br1         3.6081   -4.7369   -0.3224 Br        1 <0>        -0.0130
     12 N1          1.2188   -6.1574    0.9800 N.am      1 <0>        -0.6666
     13 C10         0.1369   -6.9392    1.1504 C.2       1 <0>         0.5178
     14 O1          0.2562   -8.1455    1.1075 O.2       1 <0>        -0.4960
     15 C11        -1.2194   -6.3342    1.3940 C.3       1 <0>        -0.1409
     16 C12        -1.0798   -5.0650    2.2355 C.3       1 <0>        -0.0816
     17 N2         -1.3761   -0.5125    0.0124 N.4       1 <0>        -0.6391
     18 H2          1.0039    1.9031    0.0027 H         1 <0>         0.1086
     19 H3         -0.5459    1.8868   -0.8726 H         1 <0>         0.0849
     20 H4         -0.5289    1.8773    0.9072 H         1 <0>         0.0840
     21 H5          1.7350   -0.0630    1.2804 H         1 <0>         0.1235
     22 H6          0.1838   -0.2350    2.1361 H         1 <0>         0.1023
     23 H7         -0.9813   -2.3646    2.1820 H         1 <0>         0.1368
     24 H8          2.7410   -1.9518    0.1399 H         1 <0>         0.1461
     25 H9          2.0840   -6.5623    0.8115 H         1 <0>         0.4187
     26 H10        -1.6822   -6.0864    0.4387 H         1 <0>         0.1081
     27 H11        -1.8463   -7.0521    1.9230 H         1 <0>         0.1202
     28 H12        -0.8119   -5.3338    3.2573 H         1 <0>         0.0955
     29 H13        -2.0269   -4.5256    2.2385 H         1 <0>         0.0989
     30 H14        -1.8641   -0.1783   -0.8050 H         1 <0>         0.4374
     31 H15        -1.3624   -1.5214    0.0069 H         1 <0>         0.4321
     32 H16        -1.8484   -0.1871    0.8426 H         1 <0>         0.4324
@<TRIPOS>BOND
     1    1    2 1
     2    1   18 1
     3    1   19 1
     4    1   20 1
     5    2    3 1
     6    2    4 1
     7    2   17 1
     8    4    5 1
     9    4   21 1
    10    4   22 1
    11    5   10 ar
    12    5    6 ar
    13    6    7 ar
    14    6   23 1
    15    7   16 1
    16    7    8 ar
    17    8    9 ar
    18    8   12 1
    19    9   10 ar
    20    9   11 1
    21   10   24 1
    22   12   13 am
    23   12   25 1
    24   13   14 2
    25   13   15 1
    26   15   16 1
    27   15   26 1
    28   15   27 1
    29   16   28 1
    30   16   29 1
    31   17   30 1
    32   17   31 1
    33   17   32 1
@<TRIPOS>MOLECULE
ZINC35749657
   26    27     0     0     0
SMALL
USER_CHARGES

@<TRIPOS>ATOM
      1 C1         -0.0187    1.5258    0.0104 C.3       1 <0>        -0.1538
      2 C2          0.0021   -0.0041    0.0020 C.3       1 <0>         0.0962
      3 H1          0.5117   -0.3593   -0.8937 H         1 <0>         0.0930
      4 C3         -1.4350   -0.5404    0.0258 C.3       1 <0>        -0.1842
      5 C4         -1.3810   -2.0653   -0.0947 C.3       1 <0>         0.0928
      6 H2         -1.0920   -2.3390   -1.1094 H         1 <0>         0.1578
      7 C5         -0.3714   -2.6162    0.8803 C.ar      1 <0>        -0.2235
      8 C6         -0.4264   -3.9614    1.2074 C.ar      1 <0>        -0.0725
      9 C7          0.4837   -4.5017    2.0940 C.ar      1 <0>        -0.1190
     10 C8          1.4582   -3.6983    2.6602 C.ar      1 <0>         0.0231
     11 C9          1.5170   -2.3558    2.3387 C.ar      1 <0>        -0.0663
     12 C10         0.5985   -1.8086    1.4469 C.ar      1 <0>         0.1940
     13 O1          0.6816   -0.4823    1.1636 O.3       1 <0>        -0.2864
     14 Cl1         2.7392   -1.3483    3.0493 Cl        1 <0>        -0.0027
     15 Cl2         2.6047   -4.3763    3.7735 Cl        1 <0>        -0.0059
     16 N1         -2.7051   -2.6266    0.2046 N.4       1 <0>        -0.6328
     17 H3          1.0039    1.9031    0.0027 H         1 <0>         0.0838
     18 H4         -0.5459    1.8868   -0.8726 H         1 <0>         0.0906
     19 H5         -0.5289    1.8773    0.9072 H         1 <0>         0.0752
     20 H6         -1.9152   -0.2627    0.9641 H         1 <0>         0.1060
     21 H7         -1.9959   -0.1253   -0.8115 H         1 <0>         0.1200
     22 H8         -1.1855   -4.5906    0.7667 H         1 <0>         0.1406
     23 H9          0.4351   -5.5508    2.3459 H         1 <0>         0.1588
     24 H10        -3.3810   -2.2609   -0.4493 H         1 <0>         0.4415
     25 H11        -2.6701   -3.6318    0.1253 H         1 <0>         0.4363
     26 H12        -2.9738   -2.3724    1.1434 H         1 <0>         0.4376
@<TRIPOS>BOND
     1    1    2 1
     2    1   17 1
     3    1   18 1
     4    1   19 1
     5    2    3 1
     6    2   13 1
     7    2    4 1
     8    4    5 1
     9    4   20 1
    10    4   21 1
    11    5    6 1
    12    5    7 1
    13    5   16 1
    14    7   12 ar
    15    7    8 ar
    16    8    9 ar
    17    8   22 1
    18    9   10 ar
    19    9   23 1
    20   10   11 ar
    21   10   15 1
    22   11   12 ar
    23   11   14 1
    24   12   13 1
    25   16   24 1
    26   16   25 1
    27   16   26 1
@<TRIPOS>MOLECULE
ZINC41726289
   42    44     0     0     0
SMALL
USER_CHARGES

@<TRIPOS>ATOM
      1 C1         -0.0187    1.5258    0.0104 C.3       1 <0>        -0.1577
      2 C2          0.0021   -0.0041    0.0020 C.3       1 <0>        -0.0429
      3 C3         -1.4366   -0.5347    0.0117 C.3       1 <0>        -0.0572
      4 C4         -2.0412   -0.2475    1.3642 C.2       1 <0>         0.0792
      5 C5         -1.3199    0.0727    2.4627 C.2       1 <0>        -0.2468
      6 C6         -2.2207    0.2689    3.5195 C.2       1 <0>        -0.1956
      7 C7         -3.4629    0.0603    3.0315 C.2       1 <0>         0.0110
      8 N1         -3.3552   -0.2577    1.7079 N.pl3     1 <0>        -0.4172
      9 C8         -4.4714   -0.5590    0.8081 C.3       1 <0>         0.1202
     10 C9         -5.4650    0.6208    0.7852 C.3       1 <0>        -0.1339
     11 C10        -6.8555   -0.0553    0.6927 C.3       1 <0>        -0.1257
     12 C11        -6.6913   -1.3000    1.5998 C.3       1 <0>        -0.1264
     13 C12        -5.2511   -1.7803    1.3261 C.3       1 <0>        -0.1347
     14 C13         0.1833    0.1832    2.4907 C.3       1 <0>         0.1178
     15 H1          0.4743    1.2337    2.4884 H         1 <0>         0.1429
     16 C14         0.7427   -0.5111    1.2425 C.3       1 <0>        -0.1330
     17 N2          0.7051   -0.4720    3.6974 N.4       1 <0>        -0.6330
     18 C15         0.7186   -0.4973   -1.2566 C.3       1 <0>        -0.1491
     19 H2          1.0039    1.9031    0.0027 H         1 <0>         0.0645
     20 H3         -0.5459    1.8868   -0.8726 H         1 <0>         0.0665
     21 H4         -0.5289    1.8773    0.9072 H         1 <0>         0.0632
     22 H5         -2.0174   -0.0349   -0.7635 H         1 <0>         0.0861
     23 H6         -1.4326   -1.6098   -0.1677 H         1 <0>         0.0886
     24 H7         -1.9682    0.5366    4.5349 H         1 <0>         0.1408
     25 H8         -4.3832    0.1329    3.5919 H         1 <0>         0.1686
     26 H9         -4.0981   -0.7533   -0.1974 H         1 <0>         0.1058
     27 H10        -5.3850    1.2048    1.7021 H         1 <0>         0.0789
     28 H11        -5.2886    1.2512   -0.0863 H         1 <0>         0.0790
     29 H12        -7.6323    0.6045    1.0791 H         1 <0>         0.0791
     30 H13        -7.0736   -0.3512   -0.3334 H         1 <0>         0.0762
     31 H14        -6.8093   -1.0263    2.6483 H         1 <0>         0.0702
     32 H15        -7.4098   -2.0714    1.3228 H         1 <0>         0.0774
     33 H16        -5.2569   -2.5670    0.5716 H         1 <0>         0.0820
     34 H17        -4.7990   -2.1489    2.2469 H         1 <0>         0.0756
     35 H18         0.6045   -1.5885    1.3332 H         1 <0>         0.0881
     36 H19         1.8053   -0.2876    1.1480 H         1 <0>         0.0942
     37 H20         0.4413   -1.4459    3.6921 H         1 <0>         0.4324
     38 H21         1.7112   -0.3962    3.7130 H         1 <0>         0.4330
     39 H22         1.7412   -0.1199   -1.2640 H         1 <0>         0.0666
     40 H23         0.7335   -1.5872   -1.2627 H         1 <0>         0.0624
     41 H24         0.1917   -0.1361   -2.1398 H         1 <0>         0.0683
     42 H25         0.3214   -0.0240    4.5161 H         1 <0>         0.4348
@<TRIPOS>BOND
     1    1    2 1
     2    1   19 1
     3    1   20 1
     4    1   21 1
     5    2   16 1
     6    2    3 1
     7    2   18 1
     8    3    4 1
     9    3   22 1
    10    3   23 1
    11    4    8 1
    12    4    5 2
    13    5    6 1
    14    5   14 1
    15    6    7 2
    16    6   24 1
    17    7    8 1
    18    7   25 1
    19    8    9 1
    20    9   13 1
    21    9   10 1
    22    9   26 1
    23   10   11 1
    24   10   27 1
    25   10   28 1
    26   11   12 1
    27   11   29 1
    28   11   30 1
    29   12   13 1
    30   12   31 1
    31   12   32 1
    32   13   33 1
    33   13   34 1
    34   14   15 1
    35   14   16 1
    36   14   17 1
    37   16   35 1
    38   16   36 1
    39   17   37 1
    40   17   38 1
    41   17   42 1
    42   18   39 1
    43   18   40 1
    44   18   41 1
@<TRIPOS>MOLECULE
ZINC49730462
   25    26     0     0     0
SMALL
USER_CHARGES

@<TRIPOS>ATOM
      1 C1         -0.0163    1.3510    0.0095 C.2       1 <0>        -0.0759
      2 C2          1.1834    2.0381    0.0017 C.2       1 <0>        -0.1267
      3 C3          2.3432    1.3350   -0.0131 C.2       1 <0>        -0.1294
      4 S1          1.7534   -0.3501   -0.0166 S.3       1 <0>         0.1135
      5 C4          0.0021   -0.0041    0.0020 C.2       1 <0>        -0.2509
      6 C5         -1.1557   -0.9688    0.0086 C.3       1 <0>         0.1443
      7 H1         -2.0493   -0.4613    0.3719 H         1 <0>         0.1628
      8 C6         -1.4016   -1.4800   -1.4123 C.3       1 <0>        -0.1115
      9 C7         -2.6523   -2.3611   -1.4280 C.3       1 <0>        -0.1999
     10 C8         -2.4730   -3.8358   -1.7940 C.3       1 <0>        -0.1866
     11 C9         -3.1362   -2.8769   -2.7847 C.3       1 <0>        -0.1563
     12 N1         -0.8437   -2.1021    0.8897 N.4       1 <0>        -0.6372
     13 Br1         4.1230    1.9737   -0.0272 Br        1 <0>         0.0762
     14 H2         -0.9542    1.8862    0.0258 H         1 <0>         0.1545
     15 H3          1.1969    3.1180    0.0070 H         1 <0>         0.1594
     16 H4         -1.5453   -0.6332   -2.0834 H         1 <0>         0.1199
     17 H5         -0.5420   -2.0634   -1.7424 H         1 <0>         0.0938
     18 H6         -3.4098   -2.1155   -0.6836 H         1 <0>         0.1174
     19 H7         -1.4641   -4.1783   -2.0237 H         1 <0>         0.1012
     20 H8         -3.1125   -4.5608   -1.2904 H         1 <0>         0.1058
     21 H9         -4.2120   -2.9709   -2.9328 H         1 <0>         0.1067
     22 H10        -2.5635   -2.5884   -3.6662 H         1 <0>         0.1040
     23 H11        -0.6816   -1.7649    1.8267 H         1 <0>         0.4401
     24 H12        -1.6189   -2.7479    0.8941 H         1 <0>         0.4427
     25 H13        -0.0165   -2.5718    0.5534 H         1 <0>         0.4320
@<TRIPOS>BOND
     1    1    5 2
     2    1    2 1
     3    1   14 1
     4    2    3 2
     5    2   15 1
     6    3    4 1
     7    3   13 1
     8    4    5 1
     9    5    6 1
    10    6    7 1
    11    6    8 1
    12    6   12 1
    13    8    9 1
    14    8   16 1
    15    8   17 1
    16    9   11 1
    17    9   10 1
    18    9   18 1
    19   10   11 1
    20   10   19 1
    21   10   20 1
    22   11   21 1
    23   11   22 1
    24   12   23 1
    25   12   24 1
    26   12   25 1
@<TRIPOS>MOLECULE
ZINC54742680
   25    26     0     0     0
SMALL
USER_CHARGES

@<TRIPOS>ATOM
      1 C1          0.1691    1.6608   -0.3919 C.ar      1 <0>        -0.0665
      2 C2          1.4120    2.2654   -0.3776 C.ar      1 <0>        -0.0797
      3 C3          2.5496    1.4914   -0.2653 C.ar      1 <0>        -0.0480
      4 C4          2.4557    0.1079   -0.1643 C.ar      1 <0>        -0.1195
      5 C5          1.2180   -0.4937   -0.1735 C.ar      1 <0>        -0.0168
      6 C6          0.0737    0.2873   -0.2908 C.ar      1 <0>        -0.0301
      7 Cl1        -1.4878   -0.4709   -0.3097 Cl        1 <0>        -0.0225
      8 C7          1.0403   -1.9846   -0.0520 C.3       1 <0>        -0.1012
      9 C8          2.3482   -2.7088   -0.3639 C.3       1 <0>        -0.1159
     10 C9          3.4628   -2.0804    0.4809 C.3       1 <0>        -0.1442
     11 C10         3.7373   -0.6756   -0.0520 C.3       1 <0>         0.0840
     12 H1          4.2013   -0.7486   -1.0356 H         1 <0>         0.1555
     13 N1          4.6516    0.0198    0.8636 N.4       1 <0>        -0.6438
     14 Cl2         4.1102    2.2517   -0.2505 Cl        1 <0>        -0.0502
     15 H2         -0.7246    2.2612   -0.4774 H         1 <0>         0.1607
     16 H3          1.4930    3.3397   -0.4544 H         1 <0>         0.1598
     17 H4          0.7282   -2.2277    0.9637 H         1 <0>         0.1013
     18 H5          0.2718   -2.3131   -0.7518 H         1 <0>         0.1032
     19 H6          2.2509   -3.7657   -0.1155 H         1 <0>         0.1003
     20 H7          2.5845   -2.6003   -1.4224 H         1 <0>         0.0830
     21 H8          3.1459   -2.0227    1.5222 H         1 <0>         0.0951
     22 H9          4.3665   -2.6851    0.4046 H         1 <0>         0.1046
     23 H10         4.1176    0.4929    1.5771 H         1 <0>         0.4329
     24 H11         5.2697   -0.6508    1.2953 H         1 <0>         0.4324
     25 H12         5.1955    0.6949    0.3474 H         1 <0>         0.4256
@<TRIPOS>BOND
     1    1    6 ar
     2    1    2 ar
     3    1   15 1
     4    2    3 ar
     5    2   16 1
     6    3    4 ar
     7    3   14 1
     8    4   11 1
     9    4    5 ar
    10    5    6 ar
    11    5    8 1
    12    6    7 1
    13    8    9 1
    14    8   17 1
    15    8   18 1
    16    9   10 1
    17    9   19 1
    18    9   20 1
    19   10   11 1
    20   10   21 1
    21   10   22 1
    22   11   12 1
    23   11   13 1
    24   13   23 1
    25   13   24 1
    26   13   25 1
@<TRIPOS>MOLECULE
ZINC61846217
   30    30     0     0     0
SMALL
USER_CHARGES

@<TRIPOS>ATOM
      1 C1         -0.0187    1.5258    0.0104 C.3       1 <0>        -0.1650
      2 C2          0.0021   -0.0041    0.0020 C.3       1 <0>        -0.1026
      3 C3          0.7182   -0.4975   -1.2568 C.3       1 <0>        -0.1547
      4 C4          0.7421   -0.5109    1.2415 C.3       1 <0>        -0.1410
      5 C5         -0.0416   -0.1236    2.4973 C.3       1 <0>         0.0774
      6 H1         -0.2110    0.9531    2.5022 H         1 <0>         0.1561
      7 C6          0.7462   -0.5138    3.7213 C.ar      1 <0>        -0.1470
      8 C7          0.5063   -1.7268    4.3395 C.ar      1 <0>        -0.0859
      9 C8          1.2279   -2.0858    5.4619 C.ar      1 <0>        -0.1324
     10 C9          2.1921   -1.2303    5.9682 C.ar      1 <0>         0.1475
     11 C10         2.4326   -0.0160    5.3489 C.ar      1 <0>        -0.1331
     12 C11         1.7130    0.3395    4.2222 C.ar      1 <0>         0.0144
     13 Cl1         2.0180    1.8596    3.4412 Cl        1 <0>        -0.0257
     14 F1          2.8972   -1.5805    7.0660 F         1 <0>        -0.1132
     15 N1         -1.3336   -0.8226    2.5031 N.4       1 <0>        -0.6358
     16 H2          1.0039    1.9031    0.0027 H         1 <0>         0.0701
     17 H3         -0.5459    1.8868   -0.8726 H         1 <0>         0.0724
     18 H4         -0.5289    1.8773    0.9072 H         1 <0>         0.0523
     19 H5         -1.0205   -0.3814    0.0098 H         1 <0>         0.0652
     20 H6          1.7408   -0.1202   -1.2645 H         1 <0>         0.0663
     21 H7          0.7330   -1.5874   -1.2628 H         1 <0>         0.0619
     22 H8          0.1910   -0.1364   -2.1398 H         1 <0>         0.0691
     23 H9          0.8346   -1.5958    1.1912 H         1 <0>         0.0959
     24 H10         1.7350   -0.0630    1.2804 H         1 <0>         0.1166
     25 H11        -0.2458   -2.3941    3.9452 H         1 <0>         0.1390
     26 H12         1.0397   -3.0335    5.9446 H         1 <0>         0.1579
     27 H13         3.1841    0.6521    5.7431 H         1 <0>         0.1627
     28 H14        -1.8504   -0.5672    3.3312 H         1 <0>         0.4397
     29 H15        -1.8611   -0.5613    1.6836 H         1 <0>         0.4395
     30 H16        -1.1769   -1.8193    2.4985 H         1 <0>         0.4323
@<TRIPOS>BOND
     1    1    2 1
     2    1   16 1
     3    1   17 1
     4    1   18 1
     5    2    3 1
     6    2    4 1
     7    2   19 1
     8    3   20 1
     9    3   21 1
    10    3   22 1
    11    4    5 1
    12    4   23 1
    13    4   24 1
    14    5    6 1
    15    5    7 1
    16    5   15 1
    17    7   12 ar
    18    7    8 ar
    19    8    9 ar
    20    8   25 1
    21    9   10 ar
    22    9   26 1
    23   10   11 ar
    24   10   14 1
    25   11   12 ar
    26   11   27 1
    27   12   13 1
    28   15   28 1
    29   15   29 1
    30   15   30 1
@<TRIPOS>MOLECULE
ZINC04243753
   25    26     0     0     0
SMALL
USER_CHARGES

@<TRIPOS>ATOM
      1 C1         -0.0168    1.3905    0.0097 C.ar      1 <0>        -0.0999
      2 C2          1.1699    2.0946    0.0021 C.ar      1 <0>        -0.0883
      3 C3          2.3782    1.4197   -0.0130 C.ar      1 <0>        -0.0279
      4 C4          2.4037    0.0341   -0.0207 C.ar      1 <0>        -0.0237
      5 C5          1.2223   -0.6801   -0.0133 C.ar      1 <0>        -0.0756
      6 C6          0.0021   -0.0041    0.0020 C.ar      1 <0>        -0.0038
      7 C7         -1.2679   -0.7641    0.0106 C.2       1 <0>         0.0522
      8 C8         -1.4037   -2.1241    0.0101 C.2       1 <0>        -0.1440
      9 C9         -2.7951   -2.3631    0.0201 C.2       1 <0>        -0.0052
     10 N1         -3.3952   -1.1893    0.0257 N.2       1 <0>        -0.2431
     11 N2         -2.5276   -0.2420    0.0263 N.pl3     1 <0>        -0.3710
     12 H1         -2.7375    0.7049    0.0339 H         1 <0>         0.4487
     13 C10        -3.4563   -3.6843    0.0231 C.2       1 <0>         0.6055
     14 O1         -2.7868   -4.6991    0.0167 O.2       1 <0>        -0.5144
     15 N3         -4.8016   -3.7646    0.0329 N.am      1 <0>        -0.5649
     16 N4         -5.4129   -4.9861    0.0357 N.3       1 <0>        -0.6006
     17 Cl1         3.9234   -0.8048   -0.0403 Cl        1 <0>        -0.0345
     18 Cl2         3.8673    2.3122   -0.0230 Cl        1 <0>        -0.0386
     19 H2         -0.9588    1.9185    0.0260 H         1 <0>         0.1358
     20 H3          1.1559    3.1745    0.0077 H         1 <0>         0.1501
     21 H4          1.2426   -1.7599   -0.0196 H         1 <0>         0.1527
     22 H5         -0.6135   -2.8604    0.0030 H         1 <0>         0.1715
     23 H6         -5.3357   -2.9549    0.0381 H         1 <0>         0.4081
     24 H7         -5.0985   -5.5461    0.8140 H         1 <0>         0.3495
     25 H8         -6.4171   -4.8879    0.0433 H         1 <0>         0.3613
@<TRIPOS>BOND
     1    1    6 ar
     2    1    2 ar
     3    1   19 1
     4    2    3 ar
     5    2   20 1
     6    3    4 ar
     7    3   18 1
     8    4    5 ar
     9    4   17 1
    10    5    6 ar
    11    5   21 1
    12    6    7 1
    13    7   11 1
    14    7    8 2
    15    8    9 1
    16    8   22 1
    17    9   10 2
    18    9   13 1
    19   10   11 1
    20   11   12 1
    21   13   14 2
    22   13   15 am
    23   15   16 1
    24   15   23 1
    25   16   24 1
    26   16   25 1
@<TRIPOS>MOLECULE
ZINC35452779
   35    37     0     0     0
SMALL
USER_CHARGES

@<TRIPOS>ATOM
      1 C1         -0.0167    1.3799    0.0096 C.ar      1 <0>        -0.1446
      2 C2          1.1764    2.0882    0.0020 C.ar      1 <0>         0.1640
      3 C3          2.3925    1.4071   -0.0133 C.ar      1 <0>         0.1619
      4 C4          2.4105    0.0202   -0.0202 C.ar      1 <0>        -0.1583
      5 C5          1.2179   -0.6851   -0.0121 C.ar      1 <0>         0.0831
      6 C6          0.0021   -0.0041    0.0020 C.ar      1 <0>         0.0710
      7 O1         -1.1607   -0.7116    0.0067 O.3       1 <0>        -0.3029
      8 C7         -1.1579   -1.9577   -0.6946 C.3       1 <0>         0.0520
      9 C8          0.0760   -2.7424   -0.3279 C.2       1 <0>         0.4899
     10 O2          0.0441   -3.9549   -0.3111 O.2       1 <0>        -0.5175
     11 N1          1.2174   -2.0896   -0.0175 N.am      1 <0>        -0.6561
     12 N2          3.5980    2.1242   -0.0223 N.pl3     1 <0>        -0.7419
     13 C9          4.8760    1.4084   -0.0385 C.3       1 <0>         0.1505
     14 C10         5.3249    1.0958    1.4040 C.3       1 <0>        -0.1402
     15 C11         6.8632    1.2741    1.3701 C.3       1 <0>        -0.1261
     16 C12         7.0454    2.4929    0.4319 C.3       1 <0>        -0.1250
     17 C13         5.9700    2.2966   -0.6565 C.3       1 <0>        -0.1314
     18 N3          1.1588    3.4902    0.0094 N.pl3     1 <0>        -0.8783
     19 H1         -0.9588    1.9078    0.0260 H         1 <0>         0.1382
     20 H2          3.3520   -0.5088   -0.0322 H         1 <0>         0.1325
     21 H3         -2.0455   -2.5291   -0.4227 H         1 <0>         0.1435
     22 H4         -1.1627   -1.7699   -1.7683 H         1 <0>         0.0976
     23 H5          2.0244   -2.5831    0.1971 H         1 <0>         0.4132
     24 H6          3.5853    3.0941   -0.0178 H         1 <0>         0.3940
     25 H7          4.7790    0.4844   -0.6086 H         1 <0>         0.0812
     26 H8          4.8747    1.7991    2.1045 H         1 <0>         0.0723
     27 H9          5.0654    0.0713    1.6707 H         1 <0>         0.0669
     28 H10         7.2488    1.4921    2.3660 H         1 <0>         0.0684
     29 H11         7.3454    0.3900    0.9530 H         1 <0>         0.0689
     30 H12         6.8731    3.4218    0.9754 H         1 <0>         0.0662
     31 H13         8.0415    2.4880   -0.0108 H         1 <0>         0.0682
     32 H14         6.4044    1.8034   -1.5261 H         1 <0>         0.0741
     33 H15         5.5499    3.2604   -0.9445 H         1 <0>         0.0697
     34 H16         0.3128    3.9645    0.0198 H         1 <0>         0.4017
     35 H17         1.9927    3.9857    0.0041 H         1 <0>         0.3931
@<TRIPOS>BOND
     1    1    6 ar
     2    1    2 ar
     3    1   19 1
     4    2    3 ar
     5    2   18 1
     6    3    4 ar
     7    3   12 1
     8    4    5 ar
     9    4   20 1
    10    5   11 1
    11    5    6 ar
    12    6    7 1
    13    7    8 1
    14    8    9 1
    15    8   21 1
    16    8   22 1
    17    9   10 2
    18    9   11 am
    19   11   23 1
    20   12   13 1
    21   12   24 1
    22   13   17 1
    23   13   14 1
    24   13   25 1
    25   14   15 1
    26   14   26 1
    27   14   27 1
    28   15   16 1
    29   15   28 1
    30   15   29 1
    31   16   17 1
    32   16   30 1
    33   16   31 1
    34   17   32 1
    35   17   33 1
    36   18   34 1
    37   18   35 1
@<TRIPOS>MOLECULE
ZINC38049666
   35    36     0     0     0
SMALL
USER_CHARGES

@<TRIPOS>ATOM
      1 C1         -0.0166    1.3754    0.0096 C.ar      1 <0>        -0.2303
      2 C2          1.1846    2.0900    0.0020 C.ar      1 <0>        -0.1309
      3 C3          2.4015    1.4022   -0.0133 C.ar      1 <0>         0.0398
      4 C4          2.4093    0.0157   -0.0209 C.ar      1 <0>         0.2373
      5 C5          1.2114   -0.6860   -0.0132 C.ar      1 <0>        -0.0523
      6 C6          0.0021   -0.0041    0.0020 C.ar      1 <0>         0.1069
      7 F1         -1.1598   -0.6934    0.0099 F         1 <0>        -0.1422
      8 F2          1.2224   -2.0369   -0.0206 F         1 <0>        -0.1331
      9 O1          3.5912   -0.6574   -0.0362 O.3       1 <0>        -0.6522
     10 F3          3.5664    2.0863   -0.0212 F         1 <0>        -0.1198
     11 C7          1.1684    3.5658    0.0096 C.2       1 <0>         0.5749
     12 O2          2.2145    4.1853    0.0029 O.2       1 <0>        -0.5061
     13 N1         -0.0061    4.2267    0.0239 N.am      1 <0>        -0.7540
     14 C8         -0.0223    5.6916    0.0314 C.3       1 <0>         0.1298
     15 H1          0.8099    6.0672   -0.5639 H         1 <0>         0.1133
     16 C9          0.1112    6.1957    1.4698 C.3       1 <0>        -0.1305
     17 C10         0.0943    7.7256    1.4777 C.3       1 <0>        -0.1279
     18 C11        -1.2242    8.2241    0.8829 C.3       1 <0>        -0.1183
     19 C12        -1.3577    7.7200   -0.5555 C.3       1 <0>        -0.1365
     20 C13        -1.3408    6.1901   -0.5634 C.3       1 <0>         0.0196
     21 H2         -2.1730    5.8145    0.0320 H         1 <0>         0.1477
     22 N2         -1.4690    5.7061   -1.9444 N.4       1 <0>        -0.6365
     23 H3         -0.9589    1.9029    0.0259 H         1 <0>         0.1222
     24 H4         -0.8408    3.7324    0.0292 H         1 <0>         0.4008
     25 H5         -0.7210    5.8201    2.0652 H         1 <0>         0.0769
     26 H6          1.0506    5.8405    1.8936 H         1 <0>         0.0925
     27 H7          0.1895    8.0847    2.5024 H         1 <0>         0.0817
     28 H8          0.9265    8.1012    0.8823 H         1 <0>         0.0733
     29 H9         -2.0564    7.8485    1.4782 H         1 <0>         0.0758
     30 H10        -1.2362    9.3140    0.8885 H         1 <0>         0.0861
     31 H11        -2.2971    8.0752   -0.9793 H         1 <0>         0.0927
     32 H12        -0.5255    8.0956   -1.1509 H         1 <0>         0.0913
     33 H13        -1.4579    4.6972   -1.9496 H         1 <0>         0.4369
     34 H14        -2.3386    6.0349   -2.3367 H         1 <0>         0.4356
     35 H15        -0.6987    6.0538   -2.4956 H         1 <0>         0.4355
@<TRIPOS>BOND
     1    1    6 ar
     2    1    2 ar
     3    1   23 1
     4    2    3 ar
     5    2   11 1
     6    3    4 ar
     7    3   10 1
     8    4    5 ar
     9    4    9 1
    10    5    6 ar
    11    5    8 1
    12    6    7 1
    13   11   12 2
    14   11   13 am
    15   13   14 1
    16   13   24 1
    17   14   15 1
    18   14   20 1
    19   14   16 1
    20   16   17 1
    21   16   25 1
    22   16   26 1
    23   17   18 1
    24   17   27 1
    25   17   28 1
    26   18   19 1
    27   18   29 1
    28   18   30 1
    29   19   20 1
    30   19   31 1
    31   19   32 1
    32   20   21 1
    33   20   22 1
    34   22   33 1
    35   22   34 1
    36   22   35 1
@<TRIPOS>MOLECULE
ZINC51999460
   38    40     0     0     0
SMALL
USER_CHARGES

@<TRIPOS>ATOM
      1 C1         -0.0170    1.4057    0.0098 C.ar      1 <0>        -0.0401
      2 C2          1.1738    2.0679    0.0020 C.ar      1 <0>        -0.2050
      3 C3          2.3746    1.3448   -0.0134 C.ar      1 <0>         0.4149
      4 N1          2.3861    0.0281   -0.0210 N.ar      1 <0>        -0.5416
      5 C4          1.2483   -0.6768   -0.0139 C.ar      1 <0>         0.1393
      6 C5          0.0021   -0.0041    0.0020 C.ar      1 <0>        -0.0981
      7 C6         -1.1884   -0.7467    0.0089 C.ar      1 <0>        -0.1818
      8 C7         -1.1291   -2.1234    0.0005 C.ar      1 <0>         0.1949
      9 C8          0.1055   -2.7819   -0.0143 C.ar      1 <0>        -0.1418
     10 C9          1.2715   -2.0824   -0.0221 C.ar      1 <0>        -0.0693
     11 N2         -2.3118   -2.8681    0.0073 N.pl3     1 <0>        -0.8801
     12 N3          3.5799    2.0330   -0.0212 N.pl3     1 <0>        -0.7064
     13 C10         3.5871    3.4980   -0.0134 C.3       1 <0>         0.1640
     14 H1          2.7527    3.8622    0.5860 H         1 <0>         0.0873
     15 C11         3.4501    4.0162   -1.4464 C.3       1 <0>        -0.1360
     16 C12         4.6213    3.5050   -2.2878 C.3       1 <0>        -0.1206
     17 C13         5.9369    4.0054   -1.6880 C.3       1 <0>        -0.1185
     18 C14         6.0738    3.4871   -0.2550 C.3       1 <0>        -0.1543
     19 C15         4.9027    3.9984    0.5864 C.3       1 <0>         0.0987
     20 H2          4.9080    5.0884    0.5922 H         1 <0>         0.0700
     21 O1          5.0306    3.5143    1.9248 O.3       1 <0>        -0.5602
     22 H3         -0.9516    1.9468    0.0260 H         1 <0>         0.1354
     23 H4          1.1924    3.1478    0.0072 H         1 <0>         0.1319
     24 H5         -2.1438   -0.2432    0.0211 H         1 <0>         0.1224
     25 H6          0.1326   -3.8615   -0.0204 H         1 <0>         0.1264
     26 H7          2.2156   -2.6067   -0.0343 H         1 <0>         0.1333
     27 H8         -3.1698   -2.4157    0.0179 H         1 <0>         0.3981
     28 H9         -2.2747   -3.8374    0.0014 H         1 <0>         0.3975
     29 H10         4.4176    1.5440   -0.0318 H         1 <0>         0.4043
     30 H11         2.5129    3.6597   -1.8737 H         1 <0>         0.0742
     31 H12         3.4555    5.1062   -1.4406 H         1 <0>         0.0753
     32 H13         4.6160    2.4150   -2.2936 H         1 <0>         0.0671
     33 H14         4.5238    3.8742   -3.3087 H         1 <0>         0.0658
     34 H15         6.7713    3.6412   -2.2874 H         1 <0>         0.0673
     35 H16         5.9422    5.0954   -1.6822 H         1 <0>         0.0651
     36 H17         6.0685    2.3972   -0.2607 H         1 <0>         0.0711
     37 H18         7.0111    3.8436    0.1723 H         1 <0>         0.0694
     38 H19         5.8435    3.7933    2.3680 H         1 <0>         0.3800
@<TRIPOS>BOND
     1    1    6 ar
     2    1    2 ar
     3    1   22 1
     4    2    3 ar
     5    2   23 1
     6    3    4 ar
     7    3   12 1
     8    4    5 ar
     9    5   10 ar
    10    5    6 ar
    11    6    7 ar
    12    7    8 ar
    13    7   24 1
    14    8    9 ar
    15    8   11 1
    16    9   10 ar
    17    9   25 1
    18   10   26 1
    19   11   27 1
    20   11   28 1
    21   12   13 1
    22   12   29 1
    23   13   14 1
    24   13   19 1
    25   13   15 1
    26   15   16 1
    27   15   30 1
    28   15   31 1
    29   16   17 1
    30   16   32 1
    31   16   33 1
    32   17   18 1
    33   17   34 1
    34   17   35 1
    35   18   19 1
    36   18   36 1
    37   18   37 1
    38   19   20 1
    39   19   21 1
    40   21   38 1
@<TRIPOS>MOLECULE
ZINC61123189
   30    31     0     0     0
SMALL
USER_CHARGES

@<TRIPOS>ATOM
      1 C1          0.0140    1.4329    0.0593 C.ar      1 <0>        -0.1381
      2 C2          1.1558    2.0212    0.5570 C.ar      1 <0>        -0.0591
      3 C3          2.3655    1.3213    0.5411 C.ar      1 <0>        -0.1888
      4 C4          2.4068    0.0206    0.0165 C.ar      1 <0>         0.2393
      5 C5          1.2437   -0.5575   -0.4817 C.ar      1 <0>         0.0543
      6 C6          0.0563    0.1481   -0.4586 C.ar      1 <0>        -0.0900
      7 F1          1.2755   -1.8093   -0.9888 F         1 <0>        -0.1177
      8 N1          3.6038   -0.6864   -0.0056 N.pl3     1 <0>        -0.5825
      9 N2          3.6031   -2.0371    0.1982 N.3       1 <0>        -0.6015
     10 C7          3.5906    1.9460    1.0718 C.2       1 <0>         0.5790
     11 O1          4.6173    1.2992    1.1521 O.2       1 <0>        -0.5200
     12 N3          3.5729    3.2341    1.4681 N.am      1 <0>        -0.6627
     13 C8          4.7573    3.8559    1.8799 C.ar      1 <0>         0.1764
     14 C9          5.7294    3.1256    2.5504 C.ar      1 <0>        -0.1443
     15 C10         6.8994    3.7419    2.9567 C.ar      1 <0>         0.1477
     16 C11         7.1022    5.0868    2.6959 C.ar      1 <0>        -0.1787
     17 C12         6.1350    5.8183    2.0279 C.ar      1 <0>         0.1240
     18 C13         4.9648    5.2042    1.6133 C.ar      1 <0>         0.0294
     19 F2          4.0234    5.9163    0.9561 F         1 <0>        -0.1190
     20 F3          6.3351    7.1303    1.7755 F         1 <0>        -0.1128
     21 F4          7.8450    3.0311    3.6091 F         1 <0>        -0.1188
     22 H1         -0.9204    1.9742    0.0769 H         1 <0>         0.1407
     23 H2          1.1164    3.0228    0.9588 H         1 <0>         0.1322
     24 H3         -0.8445   -0.3042   -0.8463 H         1 <0>         0.1435
     25 H4          4.4393   -0.2205   -0.1659 H         1 <0>         0.4168
     26 H5          4.5396   -2.4100    0.1537 H         1 <0>         0.3614
     27 H6          3.1624   -2.2702    1.0755 H         1 <0>         0.3350
     28 H7          2.7394    3.7302    1.4679 H         1 <0>         0.4206
     29 H8          5.5720    2.0769    2.7551 H         1 <0>         0.1702
     30 H9          8.0163    5.5658    3.0144 H         1 <0>         0.1632
@<TRIPOS>BOND
     1    1    6 ar
     2    1    2 ar
     3    1   22 1
     4    2    3 ar
     5    2   23 1
     6    3    4 ar
     7    3   10 1
     8    4    5 ar
     9    4    8 1
    10    5    6 ar
    11    5    7 1
    12    6   24 1
    13    8    9 1
    14    8   25 1
    15    9   26 1
    16    9   27 1
    17   10   11 2
    18   10   12 am
    19   12   13 1
    20   12   28 1
    21   13   18 ar
    22   13   14 ar
    23   14   15 ar
    24   14   29 1
    25   15   16 ar
    26   15   21 1
    27   16   17 ar
    28   16   30 1
    29   17   18 ar
    30   17   20 1
    31   18   19 1
@<TRIPOS>MOLECULE
ZINC13636783
   41    44     0     0     0
SMALL
USER_CHARGES
(3aR,4S,9bS)-4-(4-hydroxyphenyl)-3a,4,5,9b-tetrahydro-3H-cyclopenta[c]quinoline-6-carboxamide
@<TRIPOS>ATOM
      1 C1          2.1045    1.0884    0.4012 C.ar      1 <0>        -0.1689
      2 C2          2.8721    2.1751    0.0239 C.ar      1 <0>        -0.0517
      3 C3          2.2903    3.4103   -0.2220 C.ar      1 <0>        -0.1313
      4 C4          0.9202    3.5564   -0.0859 C.ar      1 <0>         0.2182
      5 C5          0.1356    2.4510    0.2965 C.ar      1 <0>        -0.2212
      6 C6          0.7392    1.2157    0.5336 C.ar      1 <0>        -0.0503
      7 C7         -1.3243    2.5978    0.4403 C.2       1 <0>         0.5690
      8 O1         -1.8363    3.6974    0.3536 O.2       1 <0>        -0.5385
      9 N1         -2.0915    1.5133    0.6677 N.am      1 <0>        -0.8495
     10 N2          0.2776    4.7636   -0.3116 N.pl3     1 <0>        -0.6114
     11 C8          1.0151    5.6195   -1.2415 C.3       1 <0>         0.1306
     12 H1          0.4895    6.5673   -1.3581 H         1 <0>         0.1064
     13 C9          2.4190    5.8791   -0.6899 C.3       1 <0>        -0.0815
     14 H2          2.4175    6.4110    0.2615 H         1 <0>         0.1056
     15 C10         3.1874    4.5412   -0.6318 C.3       1 <0>        -0.0141
     16 H3          4.0319    4.6132    0.0536 H         1 <0>         0.0955
     17 C11         3.6850    4.3400   -2.0449 C.2       1 <0>        -0.1571
     18 C12         3.7086    5.4797   -2.6893 C.2       1 <0>        -0.1539
     19 C13         3.2368    6.6076   -1.7932 C.3       1 <0>        -0.0982
     20 C14         1.1196    4.9347   -2.5798 C.ar      1 <0>        -0.1078
     21 C15         1.3775    5.6778   -3.7170 C.ar      1 <0>        -0.0833
     22 C16         1.4794    5.0516   -4.9442 C.ar      1 <0>        -0.1438
     23 C17         1.3115    3.6776   -5.0366 C.ar      1 <0>         0.1026
     24 C18         1.0472    2.9351   -3.8949 C.ar      1 <0>        -0.1375
     25 C19         0.9518    3.5652   -2.6693 C.ar      1 <0>        -0.1158
     26 O2          1.4062    3.0600   -6.2435 O.3       1 <0>        -0.5009
     27 H4          2.5766    0.1353    0.5883 H         1 <0>         0.1285
     28 H5          3.9408    2.0604   -0.0812 H         1 <0>         0.1268
     29 H6          0.1401    0.3651    0.8233 H         1 <0>         0.1265
     30 H7         -1.6831    0.6362    0.7368 H         1 <0>         0.4017
     31 H8         -3.0520    1.6099    0.7623 H         1 <0>         0.4064
     32 H9         -0.6686    4.6157   -0.6292 H         1 <0>         0.3880
     33 H10         3.9797    3.3894   -2.4643 H         1 <0>         0.1214
     34 H11         4.0207    5.5994   -3.7162 H         1 <0>         0.1246
     35 H12         4.0869    7.1322   -1.3571 H         1 <0>         0.0816
     36 H13         2.6020    7.2984   -2.3481 H         1 <0>         0.0757
     37 H14         1.5038    6.7479   -3.6451 H         1 <0>         0.1287
     38 H15         1.6852    5.6319   -5.8315 H         1 <0>         0.1273
     39 H16         0.9157    1.8654   -3.9644 H         1 <0>         0.1236
     40 H17         0.7465    2.9876   -1.7801 H         1 <0>         0.1383
     41 H18         0.5667    2.9954   -6.7192 H         1 <0>         0.3898
@<TRIPOS>BOND
     1    1    6 ar
     2    1    2 ar
     3    1   27 1
     4    2    3 ar
     5    2   28 1
     6    3   15 1
     7    3    4 ar
     8    4    5 ar
     9    4   10 1
    10    5    6 ar
    11    5    7 1
    12    6   29 1
    13    7    8 2
    14    7    9 am
    15    9   30 1
    16    9   31 1
    17   10   11 1
    18   10   32 1
    19   11   12 1
    20   11   13 1
    21   11   20 1
    22   13   14 1
    23   13   19 1
    24   13   15 1
    25   15   16 1
    26   15   17 1
    27   17   18 2
    28   17   33 1
    29   18   19 1
    30   18   34 1
    31   19   35 1
    32   19   36 1
    33   20   25 ar
    34   20   21 ar
    35   21   22 ar
    36   21   37 1
    37   22   23 ar
    38   22   38 1
    39   23   24 ar
    40   23   26 1
    41   24   25 ar
    42   24   39 1
    43   25   40 1
    44   26   41 1
@<TRIPOS>MOLECULE
ZINC36861883
   34    36     0     0     0
SMALL
USER_CHARGES

@<TRIPOS>ATOM
      1 C1         -0.0489    1.5111   -0.0050 C.3       1 <0>        -0.1070
      2 C2         -0.0240    0.0043   -0.0079 C.ar      1 <0>         0.1825
      3 C3         -0.0098   -0.6682   -1.2232 C.ar      1 <0>        -0.1897
      4 C4          0.0137   -2.0530   -1.2408 C.ar      1 <0>         0.2070
      5 C5          0.0222   -2.7309    0.0013 C.ar      1 <0>        -0.1250
      6 C6          0.0462   -4.1310    0.0682 C.ar      1 <0>        -0.1002
      7 C7          0.0542   -4.7472    1.2833 C.ar      1 <0>        -0.1160
      8 C8          0.0382   -4.0034    2.4607 C.ar      1 <0>        -0.0975
      9 C9          0.0148   -2.6427    2.4310 C.ar      1 <0>        -0.0920
     10 C10         0.0065   -1.9719    1.1958 C.ar      1 <0>         0.1534
     11 N1         -0.0110   -0.6354    1.1378 N.ar      1 <0>        -0.4916
     12 N2          0.0279   -2.7544   -2.4404 N.am      1 <0>        -0.6647
     13 C11         0.5072   -2.1707   -3.5567 C.2       1 <0>         0.5923
     14 O1          1.0200   -1.0687   -3.4950 O.2       1 <0>        -0.4953
     15 C12         0.4107   -2.8631   -4.8450 C.2       1 <0>        -0.0386
     16 C13         0.8617   -2.3893   -6.0601 C.2       1 <0>        -0.1395
     17 C14         0.5681   -3.3680   -7.0194 C.2       1 <0>         0.1167
     18 C15        -0.0449   -4.4010   -6.3841 C.2       1 <0>        -0.0460
     19 N3         -0.1406   -4.1053   -5.0601 N.pl3     1 <0>        -0.5359
     20 H1         -0.5342   -4.6747   -4.3805 H         1 <0>         0.4168
     21 N4          0.8562   -3.2940   -8.3949 N.pl3     1 <0>        -0.8774
     22 H2          0.9726    1.8914   -0.0066 H         1 <0>         0.0840
     23 H3         -0.5706    1.8676   -0.8932 H         1 <0>         0.0785
     24 H4         -0.5667    1.8642    0.8868 H         1 <0>         0.0808
     25 H5         -0.0173   -0.1139   -2.1500 H         1 <0>         0.1598
     26 H6          0.0581   -4.7178   -0.8384 H         1 <0>         0.1197
     27 H7          0.0727   -5.8259    1.3341 H         1 <0>         0.1290
     28 H8          0.0441   -4.5142    3.4123 H         1 <0>         0.1323
     29 H9          0.0023   -2.0806    3.3531 H         1 <0>         0.1388
     30 H10        -0.3071   -3.6641   -2.4743 H         1 <0>         0.4080
     31 H11         1.3491   -1.4422   -6.2383 H         1 <0>         0.1503
     32 H12        -0.3952   -5.3088   -6.8527 H         1 <0>         0.1704
     33 H13         1.2988   -2.5101   -8.7562 H         1 <0>         0.3997
     34 H14         0.6122   -4.0268   -8.9817 H         1 <0>         0.3968
@<TRIPOS>BOND
     1    1    2 1
     2    1   22 1
     3    1   23 1
     4    1   24 1
     5    2   11 ar
     6    2    3 ar
     7    3    4 ar
     8    3   25 1
     9    4    5 ar
    10    4   12 1
    11    5   10 ar
    12    5    6 ar
    13    6    7 ar
    14    6   26 1
    15    7    8 ar
    16    7   27 1
    17    8    9 ar
    18    8   28 1
    19    9   10 ar
    20    9   29 1
    21   10   11 ar
    22   12   13 am
    23   12   30 1
    24   13   14 2
    25   13   15 1
    26   15   19 1
    27   15   16 2
    28   16   17 1
    29   16   31 1
    30   17   18 2
    31   17   21 1
    32   18   19 1
    33   18   32 1
    34   19   20 1
    35   21   33 1
    36   21   34 1
@<TRIPOS>MOLECULE
ZINC00357808
   36    39     0     0     0
SMALL
USER_CHARGES

@<TRIPOS>ATOM
      1 C1          1.0738    1.3981   -1.1997 C.ar      1 <0>        -0.0615
      2 C2          1.1783    2.0874   -0.0068 C.ar      1 <0>        -0.1856
      3 C3          1.3016    1.3926    1.1900 C.ar      1 <0>         0.2246
      4 C4          1.3191    0.0046    1.1862 C.ar      1 <0>        -0.1748
      5 C5          1.2135   -0.6839   -0.0131 C.ar      1 <0>         0.1673
      6 C6          1.0910    0.0167   -1.2064 C.ar      1 <0>        -0.1540
      7 N1          1.2313   -2.0848   -0.0212 N.am      1 <0>        -0.5199
      8 C7          2.4143   -2.7177   -0.1341 C.2       1 <0>         0.5709
      9 O1          3.4402   -2.0708   -0.2268 O.2       1 <0>        -0.4854
     10 C8          2.4724   -4.1859   -0.1453 C.ar      1 <0>        -0.1693
     11 C9          3.6715   -4.8766   -0.2599 C.ar      1 <0>         0.0050
     12 C10         3.6785   -6.2644   -0.2669 C.ar      1 <0>        -0.1533
     13 C11         2.5112   -6.9880   -0.1618 C.ar      1 <0>        -0.0390
     14 C12         1.2830   -6.3227   -0.0441 C.ar      1 <0>        -0.1280
     15 C13         1.2656   -4.9137   -0.0360 C.ar      1 <0>         0.0581
     16 C14         0.0411   -4.2145    0.0805 C.ar      1 <0>        -0.2333
     17 C15        -1.1463   -4.9327    0.1881 C.ar      1 <0>         0.0552
     18 C16        -1.1301   -6.3155    0.1812 C.ar      1 <0>        -0.2455
     19 C17         0.0580   -7.0225    0.0670 C.ar      1 <0>         0.2935
     20 N2          0.0453   -8.4047    0.0613 N.pl3     1 <0>        -0.8448
     21 C18         0.0655   -2.7486    0.0896 C.2       1 <0>         0.5743
     22 O2         -0.9758   -2.1277    0.1942 O.2       1 <0>        -0.4920
     23 N3          1.4082    2.0899    2.3956 N.pl3     1 <0>        -0.8760
     24 H1          0.9739    1.9402   -2.1284 H         1 <0>         0.1306
     25 H2          1.1646    3.1673   -0.0048 H         1 <0>         0.1260
     26 H3          1.4152   -0.5379    2.1151 H         1 <0>         0.1211
     27 H4          1.0091   -0.5191   -2.1406 H         1 <0>         0.1210
     28 H5          4.6007   -4.3326   -0.3441 H         1 <0>         0.1461
     29 H6          4.6188   -6.7879   -0.3571 H         1 <0>         0.1398
     30 H7          2.5422   -8.0675   -0.1704 H         1 <0>         0.1324
     31 H8         -2.0855   -4.4072    0.2778 H         1 <0>         0.1447
     32 H9         -2.0613   -6.8560    0.2656 H         1 <0>         0.1370
     33 H10         0.8772   -8.8970   -0.0190 H         1 <0>         0.4048
     34 H11        -0.7955   -8.8823    0.1376 H         1 <0>         0.4109
     35 H12         1.3962    3.0598    2.3976 H         1 <0>         0.4006
     36 H13         1.4942    1.6042    3.2308 H         1 <0>         0.3988
@<TRIPOS>BOND
     1    1    6 ar
     2    1    2 ar
     3    1   24 1
     4    2    3 ar
     5    2   25 1
     6    3    4 ar
     7    3   23 1
     8    4    5 ar
     9    4   26 1
    10    5    6 ar
    11    5    7 1
    12    6   27 1
    13    7   21 am
    14    7    8 am
    15    8    9 2
    16    8   10 1
    17   10   15 ar
    18   10   11 ar
    19   11   12 ar
    20   11   28 1
    21   12   13 ar
    22   12   29 1
    23   13   14 ar
    24   13   30 1
    25   14   19 ar
    26   14   15 ar
    27   15   16 ar
    28   16   17 ar
    29   16   21 1
    30   17   18 ar
    31   17   31 1
    32   18   19 ar
    33   18   32 1
    34   19   20 1
    35   20   33 1
    36   20   34 1
    37   21   22 2
    38   23   35 1
    39   23   36 1
@<TRIPOS>MOLECULE
ZINC49528814
   37    39     0     0     0
SMALL
USER_CHARGES

@<TRIPOS>ATOM
      1 C1         -0.0886    1.5232    0.0149 C.3       1 <0>        -0.1641
      2 C2          0.0021   -0.0041    0.0020 C.3       1 <0>         0.1951
      3 H1         -0.9959   -0.4263   -0.1156 H         1 <0>         0.0923
      4 C3          0.8729   -0.4459   -1.1458 C.ar      1 <0>        -0.1243
      5 C4          2.2251   -0.6534   -0.9477 C.ar      1 <0>        -0.0883
      6 C5          3.0241   -1.0587   -2.0003 C.ar      1 <0>        -0.1235
      7 C6          2.4719   -1.2571   -3.2523 C.ar      1 <0>        -0.0899
      8 C7          1.1204   -1.0508   -3.4525 C.ar      1 <0>        -0.1477
      9 C8          0.3180   -0.6498   -2.3976 C.ar      1 <0>         0.1072
     10 F1         -1.0044   -0.4523   -2.5911 F         1 <0>        -0.1347
     11 N1          0.5836   -0.4694    1.2636 N.pl3     1 <0>        -0.7419
     12 C9         -0.2362   -0.6689    2.3808 C.ar      1 <0>         0.1851
     13 C10        -1.5971   -0.4313    2.2898 C.ar      1 <0>        -0.1735
     14 C11        -2.4177   -0.6277    3.3984 C.ar      1 <0>         0.1326
     15 C12        -1.8518   -1.0637    4.5897 C.ar      1 <0>        -0.1462
     16 C13        -0.4980   -1.3023    4.6860 C.ar      1 <0>        -0.1037
     17 C14         0.3192   -1.1119    3.5809 C.ar      1 <0>         0.1379
     18 N2          1.6967   -1.3587    3.6716 N.pl3     1 <0>        -0.8824
     19 C15        -2.9857   -1.1776    5.5829 C.3       1 <0>        -0.1090
     20 C16        -4.2089   -0.7577    4.7962 C.2       1 <0>         0.5272
     21 O1         -5.3475   -0.7010    5.2108 O.2       1 <0>        -0.5108
     22 N3         -3.7967   -0.4585    3.5530 N.am      1 <0>        -0.6579
     23 H2          0.9094    1.9454    0.1325 H         1 <0>         0.0619
     24 H3         -0.5212    1.8694   -0.9237 H         1 <0>         0.0661
     25 H4         -0.7185    1.8428    0.8451 H         1 <0>         0.0684
     26 H5          2.6575   -0.4984    0.0297 H         1 <0>         0.1272
     27 H6          4.0805   -1.2202   -1.8447 H         1 <0>         0.1325
     28 H7          3.0973   -1.5731   -4.0741 H         1 <0>         0.1354
     29 H8          0.6894   -1.2055   -4.4307 H         1 <0>         0.1388
     30 H9          1.5366   -0.6393    1.3248 H         1 <0>         0.3946
     31 H10        -2.0236   -0.0925    1.3572 H         1 <0>         0.1267
     32 H11        -0.0739   -1.6407    5.6199 H         1 <0>         0.1289
     33 H12         2.2660   -1.2212    2.8984 H         1 <0>         0.3898
     34 H13         2.0802   -1.6667    4.5077 H         1 <0>         0.4007
     35 H14        -3.0887   -2.2063    5.9284 H         1 <0>         0.1194
     36 H15        -2.8243   -0.5052    6.4254 H         1 <0>         0.1194
     37 H16        -4.3878   -0.1598    2.8443 H         1 <0>         0.4106
@<TRIPOS>BOND
     1    1    2 1
     2    1   23 1
     3    1   24 1
     4    1   25 1
     5    2    3 1
     6    2    4 1
     7    2   11 1
     8    4    9 ar
     9    4    5 ar
    10    5    6 ar
    11    5   26 1
    12    6    7 ar
    13    6   27 1
    14    7    8 ar
    15    7   28 1
    16    8    9 ar
    17    8   29 1
    18    9   10 1
    19   11   12 1
    20   11   30 1
    21   12   17 ar
    22   12   13 ar
    23   13   14 ar
    24   13   31 1
    25   14   22 1
    26   14   15 ar
    27   15   16 ar
    28   15   19 1
    29   16   17 ar
    30   16   32 1
    31   17   18 1
    32   18   33 1
    33   18   34 1
    34   19   20 1
    35   19   35 1
    36   19   36 1
    37   20   21 2
    38   20   22 am
    39   22   37 1
@<TRIPOS>MOLECULE
ZINC61374414
   33    34     0     0     0
SMALL
USER_CHARGES

@<TRIPOS>ATOM
      1 C1          0.2917    3.2741   -1.6588 C.3       1 <0>        -0.1579
      2 C2          0.3033    1.8832   -1.0214 C.3       1 <0>         0.2009
      3 H1         -0.7190    1.5763   -0.8005 H         1 <0>         0.0971
      4 C3          1.1030    1.9224    0.2553 C.2       1 <0>        -0.1263
      5 C4          0.4663    2.0012    1.4797 C.2       1 <0>        -0.1519
      6 C5          1.2151    2.0346    2.6090 C.2       1 <0>        -0.1652
      7 S1          2.8741    1.9539    1.9546 S.3       1 <0>         0.0488
      8 C6          2.4572    1.8753    0.2205 C.2       1 <0>        -0.1752
      9 N1          0.9110    0.9260   -1.9491 N.am      1 <0>        -0.7195
     10 C7          0.1590    0.3412   -2.9025 C.2       1 <0>         0.5728
     11 O1         -1.0239    0.6082   -2.9927 O.2       1 <0>        -0.5388
     12 C8          0.7706   -0.6222   -3.8361 C.ar      1 <0>        -0.1856
     13 C9          2.1509   -0.8421   -3.8153 C.ar      1 <0>        -0.0518
     14 C10         2.7171   -1.7434   -4.6891 C.ar      1 <0>        -0.1502
     15 C11         1.9255   -2.4359   -5.5923 C.ar      1 <0>        -0.0820
     16 C12         0.5603   -2.2304   -5.6260 C.ar      1 <0>         0.0252
     17 C13        -0.0299   -1.3277   -4.7465 C.ar      1 <0>         0.2500
     18 N2         -1.4045   -1.1222   -4.7739 N.pl3     1 <0>        -0.5761
     19 N3         -2.0774   -1.1616   -5.9620 N.3       1 <0>        -0.6086
     20 F1         -0.2032   -2.9094   -6.5099 F         1 <0>        -0.1346
     21 H2          1.3140    3.5811   -1.8797 H         1 <0>         0.0596
     22 H3         -0.2867    3.2458   -2.5822 H         1 <0>         0.0667
     23 H4         -0.1604    3.9863   -0.9686 H         1 <0>         0.0687
     24 H5         -0.6117    2.0359    1.5356 H         1 <0>         0.1370
     25 H6          0.8919    2.0949    3.6378 H         1 <0>         0.1884
     26 H7          3.1136    1.8087   -0.6345 H         1 <0>         0.1838
     27 H8          1.8546    0.7130   -1.8771 H         1 <0>         0.3987
     28 H9          2.7730   -0.3052   -3.1145 H         1 <0>         0.1305
     29 H10         3.7838   -1.9114   -4.6709 H         1 <0>         0.1382
     30 H11         2.3793   -3.1400   -6.2739 H         1 <0>         0.1410
     31 H12        -1.8859   -0.9509   -3.9494 H         1 <0>         0.4194
     32 H13        -1.9210   -2.0377   -6.4373 H         1 <0>         0.3381
     33 H14        -3.0632   -0.9955   -5.8250 H         1 <0>         0.3588
@<TRIPOS>BOND
     1    1    2 1
     2    1   21 1
     3    1   22 1
     4    1   23 1
     5    2    3 1
     6    2    4 1
     7    2    9 1
     8    4    8 2
     9    4    5 1
    10    5    6 2
    11    5   24 1
    12    6    7 1
    13    6   25 1
    14    7    8 1
    15    8   26 1
    16    9   10 am
    17    9   27 1
    18   10   11 2
    19   10   12 1
    20   12   17 ar
    21   12   13 ar
    22   13   14 ar
    23   13   28 1
    24   14   15 ar
    25   14   29 1
    26   15   16 ar
    27   15   30 1
    28   16   17 ar
    29   16   20 1
    30   17   18 1
    31   18   19 1
    32   18   31 1
    33   19   32 1
    34   19   33 1
@<TRIPOS>MOLECULE
ZINC12377546
   38    39     0     0     0
SMALL
USER_CHARGES
(4S,5S,6R)-5-acetyl-6-[4-(difluoromethoxy)phenyl]-4-hydroxy-4-(trifluoromethyl)hexahydropyrimidin-2-one
@<TRIPOS>ATOM
      1 C1         -0.4355    0.9125    0.0440 C.3       1 <0>        -0.1884
      2 C2         -0.9167    2.0833    0.8617 C.2       1 <0>         0.3426
      3 O1         -0.1189    2.8065    1.4084 O.2       1 <0>        -0.4068
      4 C3         -2.3934    2.3517    0.9971 C.3       1 <0>        -0.1356
      5 H1         -2.8867    1.8765    0.2685 H         1 <0>         0.1285
      6 C4         -2.8836    1.8556    2.3616 C.3       1 <0>         0.2082
      7 H2         -2.6324    0.8013    2.4777 H         1 <0>         0.1189
      8 N1         -2.2325    2.6328    3.4175 N.am      1 <0>        -0.7277
      9 C5         -1.8440    3.9002    3.2122 C.2       1 <0>         0.7374
     10 O2         -1.3167    4.5044    4.1261 O.2       1 <0>        -0.5719
     11 N2         -2.0137    4.5272    2.0387 N.am      1 <0>        -0.7284
     12 C6         -2.6536    3.8587    0.8993 C.3       1 <0>         0.3259
     13 C7         -2.0695    4.3945   -0.4094 C.3       1 <0>         0.4220
     14 F1         -2.5589    3.6408   -1.4816 F         1 <0>        -0.1626
     15 F2         -2.4413    5.7333   -0.5724 F         1 <0>        -0.1722
     16 F3         -0.6743    4.2994   -0.3708 F         1 <0>        -0.1605
     17 O3         -4.0612    4.1033    0.9310 O.3       1 <0>        -0.5143
     18 C8         -4.3773    2.0320    2.4547 C.ar      1 <0>        -0.1264
     19 C9         -4.9030    3.1429    3.0881 C.ar      1 <0>        -0.0261
     20 C10        -6.2719    3.3097    3.1698 C.ar      1 <0>        -0.1919
     21 C11        -7.1194    2.3557    2.6256 C.ar      1 <0>         0.1145
     22 C12        -6.5895    1.2390    1.9956 C.ar      1 <0>        -0.1353
     23 C13        -5.2199    1.0797    1.9116 C.ar      1 <0>        -0.0678
     24 O4         -8.4665    2.5149    2.7092 O.3       1 <0>        -0.3210
     25 C14        -8.9411    3.6887    3.3718 C.3       1 <0>         0.4118
     26 F4         -8.4789    3.6979    4.6922 F         1 <0>        -0.1976
     27 F5         -8.4691    4.8240    2.7045 F         1 <0>        -0.1975
     28 H3         -0.2815    0.1276    0.6442 H         1 <0>         0.0932
     29 H4          0.4968    1.1765   -0.4551 H         1 <0>         0.0971
     30 H5         -1.1876    0.6570   -0.7025 H         1 <0>         0.0897
     31 H6         -2.0786    2.2229    4.2830 H         1 <0>         0.4249
     32 H7         -1.7065    5.4419    1.9399 H         1 <0>         0.4210
     33 H8         -4.2992    5.0388    0.8729 H         1 <0>         0.3918
     34 H9         -4.2428    3.8831    3.5155 H         1 <0>         0.1202
     35 H10        -6.6820    4.1799    3.6608 H         1 <0>         0.1315
     36 H11        -7.2473    0.4951    1.5708 H         1 <0>         0.1358
     37 H12        -4.8069    0.2108    1.4209 H         1 <0>         0.1342
     38 H13       -10.0311    3.6922    3.3684 H         1 <0>         0.1827
@<TRIPOS>BOND
     1    1    2 1
     2    1   28 1
     3    1   29 1
     4    1   30 1
     5    2    3 2
     6    2    4 1
     7    4    5 1
     8    4   12 1
     9    4    6 1
    10    6    7 1
    11    6    8 1
    12    6   18 1
    13    8    9 am
    14    8   31 1
    15    9   10 2
    16    9   11 am
    17   11   12 1
    18   11   32 1
    19   12   13 1
    20   12   17 1
    21   13   14 1
    22   13   15 1
    23   13   16 1
    24   17   33 1
    25   18   23 ar
    26   18   19 ar
    27   19   20 ar
    28   19   34 1
    29   20   21 ar
    30   20   35 1
    31   21   22 ar
    32   21   24 1
    33   22   23 ar
    34   22   36 1
    35   23   37 1
    36   24   25 1
    37   25   26 1
    38   25   27 1
    39   25   38 1
@<TRIPOS>MOLECULE
ZINC47158092
   42    43     0     0     0
SMALL
USER_CHARGES

@<TRIPOS>ATOM
      1 C1         -0.0187    1.5258    0.0104 C.3       1 <0>        -0.1457
      2 C2          0.0021   -0.0041    0.0020 C.3       1 <0>         0.1016
      3 C3          0.6316   -0.4780   -1.3071 C.3       1 <0>        -0.1684
      4 C4          2.1687   -0.6368   -1.1396 C.3       1 <0>        -0.5626
      5 S1          2.2200   -1.3581    0.5597 S.o2      1 <0>         2.3639
      6 O1          3.3895   -0.9022    1.2258 O.2       1 <0>        -0.9298
      7 O2          1.9522   -2.7516    0.4841 O.2       1 <0>        -0.9265
      8 C5          0.7507   -0.4947    1.2566 C.3       1 <0>        -0.5641
      9 N1         -1.3822   -0.4925    0.0588 N.3       1 <0>        -0.4350
     10 N2         -2.1065   -0.0358   -1.0056 N.am      1 <0>        -0.5927
     11 C6         -3.4043   -0.3759   -1.1333 C.2       1 <0>         0.7183
     12 O3         -4.0490    0.0306   -2.0806 O.2       1 <0>        -0.5830
     13 N3         -3.9876   -1.1667   -0.2108 N.am      1 <0>        -0.7357
     14 C7         -5.3984   -1.5364   -0.3495 C.3       1 <0>         0.1416
     15 C8         -5.8083   -2.4322    0.8211 C.3       1 <0>        -0.0965
     16 C9         -7.2595   -2.8126    0.6783 C.ar      1 <0>        -0.0625
     17 C10        -8.2342   -2.0749    1.3242 C.ar      1 <0>        -0.0968
     18 C11        -9.5655   -2.4231    1.1938 C.ar      1 <0>        -0.0990
     19 C12        -9.9239   -3.5097    0.4179 C.ar      1 <0>        -0.0997
     20 C13        -8.9501   -4.2487   -0.2289 C.ar      1 <0>        -0.0295
     21 C14        -7.6168   -3.8962   -0.1033 C.ar      1 <0>        -0.0291
     22 Cl1        -6.3939   -4.8182   -0.9207 Cl        1 <0>        -0.0424
     23 Cl2        -9.3996   -5.6133   -1.2035 Cl        1 <0>        -0.0454
     24 H1          1.0039    1.9031    0.0027 H         1 <0>         0.0739
     25 H2         -0.5459    1.8868   -0.8726 H         1 <0>         0.0658
     26 H3         -0.5289    1.8773    0.9072 H         1 <0>         0.0809
     27 H4          0.1985   -1.4378   -1.5889 H         1 <0>         0.0920
     28 H5          0.4277    0.2521   -2.0904 H         1 <0>         0.1066
     29 H6          2.5796   -1.3267   -1.8767 H         1 <0>         0.1444
     30 H7          2.6742    0.3282   -1.1770 H         1 <0>         0.1431
     31 H8          1.0576    0.3483    1.8757 H         1 <0>         0.1548
     32 H9          0.1322   -1.1875    1.8273 H         1 <0>         0.1526
     33 H10        -1.4084   -1.4999    0.1084 H         1 <0>         0.3370
     34 H11        -1.6867    0.5333   -1.6695 H         1 <0>         0.4158
     35 H12        -3.4733   -1.4910    0.5450 H         1 <0>         0.4023
     36 H13        -6.0118   -0.6354   -0.3498 H         1 <0>         0.0719
     37 H14        -5.5425   -2.0744   -1.2865 H         1 <0>         0.0722
     38 H15        -5.1949   -3.3332    0.8213 H         1 <0>         0.0894
     39 H16        -5.6642   -1.8943    1.7581 H         1 <0>         0.0904
     40 H17        -7.9553   -1.2263    1.9312 H         1 <0>         0.1406
     41 H18       -10.3262   -1.8462    1.6988 H         1 <0>         0.1414
     42 H19       -10.9642   -3.7816    0.3170 H         1 <0>         0.1439
@<TRIPOS>BOND
     1    1    2 1
     2    1   24 1
     3    1   25 1
     4    1   26 1
     5    2    8 1
     6    2    3 1
     7    2    9 1
     8    3    4 1
     9    3   27 1
    10    3   28 1
    11    4    5 1
    12    4   29 1
    13    4   30 1
    14    5    6 2
    15    5    7 2
    16    5    8 1
    17    8   31 1
    18    8   32 1
    19    9   10 1
    20    9   33 1
    21   10   11 am
    22   10   34 1
    23   11   12 2
    24   11   13 am
    25   13   14 1
    26   13   35 1
    27   14   15 1
    28   14   36 1
    29   14   37 1
    30   15   16 1
    31   15   38 1
    32   15   39 1
    33   16   21 ar
    34   16   17 ar
    35   17   18 ar
    36   17   40 1
    37   18   19 ar
    38   18   41 1
    39   19   20 ar
    40   19   42 1
    41   20   21 ar
    42   20   23 1
    43   21   22 1
@<TRIPOS>MOLECULE
ZINC57869150
   46    48     0     0     0
SMALL
USER_CHARGES

@<TRIPOS>ATOM
      1 C1          1.0077   -0.5021    0.9567 C.ar      1 <0>        -0.1034
      2 C2          2.2333    0.1352    1.0040 C.ar      1 <0>        -0.0843
      3 C3          2.4944    1.1956    0.1551 C.ar      1 <0>        -0.0932
      4 C4          1.5287    1.6178   -0.7409 C.ar      1 <0>        -0.0869
      5 C5          0.3034    0.9799   -0.7874 C.ar      1 <0>        -0.1197
      6 C6          0.0429   -0.0799    0.0612 C.ar      1 <0>        -0.0494
      7 C7         -1.2932   -0.7751    0.0100 C.3       1 <0>        -0.0650
      8 C8         -1.9642   -0.7191   -1.3726 C.3       1 <0>        -0.1319
      9 C9         -2.3953   -2.1760   -1.1353 C.3       1 <0>        -0.1418
     10 C10        -1.1888   -2.2963   -0.1894 C.3       1 <0>        -0.1189
     11 C11        -2.2183   -0.3697    1.1592 C.3       1 <0>         0.1651
     12 N1         -2.4568    1.0749    1.1077 N.am      1 <0>        -0.7393
     13 C12        -3.1647    1.6762    2.0843 C.2       1 <0>         0.7144
     14 O1         -3.6054    1.0199    3.0080 O.2       1 <0>        -0.5665
     15 N2         -3.3841    3.0052    2.0369 N.am      1 <0>        -0.5306
     16 N3         -2.8763    3.7615    0.9725 N.am      1 <0>        -0.5300
     17 C13        -3.0957    5.0904    0.9252 C.2       1 <0>         0.5005
     18 O2         -3.7327    5.6316    1.8040 O.2       1 <0>        -0.5082
     19 C14        -2.5495    5.9040   -0.2198 C.3       1 <0>         0.0775
     20 H1         -2.9002    5.4923   -1.1661 H         1 <0>         0.1153
     21 C15        -1.0062    5.8904   -0.1825 C.3       1 <0>        -0.1509
     22 C16        -0.6540    7.3490   -0.5829 C.3       1 <0>        -0.1537
     23 C17        -1.8312    8.1233    0.0616 C.3       1 <0>         0.0447
     24 O3         -2.9753    7.2659   -0.0948 O.3       1 <0>        -0.3466
     25 Br1         4.1707    2.0684    0.2197 Br        1 <0>        -0.0484
     26 H2          0.8053   -1.3329    1.6165 H         1 <0>         0.1323
     27 H3          2.9868   -0.1945    1.7040 H         1 <0>         0.1336
     28 H4          1.7320    2.4459   -1.4036 H         1 <0>         0.1336
     29 H5         -0.4506    1.3094   -1.4869 H         1 <0>         0.1306
     30 H6         -2.7986   -0.0198   -1.4249 H         1 <0>         0.0723
     31 H7         -1.2593   -0.6009   -2.1956 H         1 <0>         0.0900
     32 H8         -3.3569   -2.2701   -0.6306 H         1 <0>         0.0853
     33 H9         -2.3188   -2.8041   -2.0228 H         1 <0>         0.0741
     34 H10        -0.2719   -2.6093   -0.6889 H         1 <0>         0.0907
     35 H11        -1.3973   -2.8704    0.7134 H         1 <0>         0.0770
     36 H12        -3.1670   -0.8981    1.0656 H         1 <0>         0.0790
     37 H13        -1.7512   -0.6271    2.1098 H         1 <0>         0.0786
     38 H14        -2.1052    1.5985    0.3708 H         1 <0>         0.3901
     39 H15        -3.8936    3.4380    2.7398 H         1 <0>         0.4447
     40 H16        -2.3668    3.3287    0.2697 H         1 <0>         0.4168
     41 H17        -0.6443    5.6654    0.8208 H         1 <0>         0.0851
     42 H18        -0.6069    5.1818   -0.9081 H         1 <0>         0.0965
     43 H19         0.2998    7.6550   -0.1529 H         1 <0>         0.0913
     44 H20        -0.6509    7.4692   -1.6662 H         1 <0>         0.0863
     45 H21        -1.6331    8.3020    1.1184 H         1 <0>         0.0667
     46 H22        -1.9930    9.0674   -0.4587 H         1 <0>         0.0962
@<TRIPOS>BOND
     1    1    6 ar
     2    1    2 ar
     3    1   26 1
     4    2    3 ar
     5    2   27 1
     6    3    4 ar
     7    3   25 1
     8    4    5 ar
     9    4   28 1
    10    5    6 ar
    11    5   29 1
    12    6    7 1
    13    7   10 1
    14    7    8 1
    15    7   11 1
    16    8    9 1
    17    8   30 1
    18    8   31 1
    19    9   10 1
    20    9   32 1
    21    9   33 1
    22   10   34 1
    23   10   35 1
    24   11   12 1
    25   11   36 1
    26   11   37 1
    27   12   13 am
    28   12   38 1
    29   13   14 2
    30   13   15 am
    31   15   16 1
    32   15   39 1
    33   16   17 am
    34   16   40 1
    35   17   18 2
    36   17   19 1
    37   19   20 1
    38   19   24 1
    39   19   21 1
    40   21   22 1
    41   21   41 1
    42   21   42 1
    43   22   23 1
    44   22   43 1
    45   22   44 1
    46   23   24 1
    47   23   45 1
    48   23   46 1
@<TRIPOS>MOLECULE
ZINC66186483
   52    54     0     0     0
SMALL
USER_CHARGES

@<TRIPOS>ATOM
      1 C1          0.1383    1.5188    0.1020 C.3       1 <0>        -0.1533
      2 C2          0.1463   -0.0110    0.0822 C.3       1 <0>        -0.1124
      3 C3          0.7307   -0.5008   -1.2442 C.3       1 <0>        -0.1252
      4 C4          0.7387   -2.0307   -1.2640 C.3       1 <0>         0.1480
      5 H1          1.2598   -2.4027   -0.3819 H         1 <0>         0.1121
      6 C5          1.4443   -2.5133   -2.5051 C.2       1 <0>         0.5196
      7 O1          0.8035   -2.8023   -3.4934 O.2       1 <0>        -0.5311
      8 N1          2.7875   -2.6238   -2.5167 N.am      1 <0>        -0.6073
      9 C6          3.4952   -2.9854   -3.7540 C.3       1 <0>         0.1171
     10 C7          4.3724   -1.7957   -4.1734 C.3       1 <0>        -0.0581
     11 C8          5.0502   -1.2490   -2.9592 C.2       1 <0>        -0.1403
     12 C9          4.7338   -1.4694   -1.6543 C.2       1 <0>        -0.1439
     13 C10         5.5247   -0.8289   -0.7018 C.2       1 <0>        -0.1461
     14 C11         6.5506   -0.0395   -1.0945 C.2       1 <0>        -0.1704
     15 S1          6.4499   -0.1632   -2.8738 S.3       1 <0>         0.0487
     16 C12         3.5656   -2.3787   -1.2949 C.3       1 <0>         0.1649
     17 N2         -0.6399   -2.5263   -1.2622 N.am      1 <0>        -0.7310
     18 C13        -1.3015   -2.6736   -0.0972 C.2       1 <0>         0.7086
     19 O2         -0.7542   -2.3951    0.9522 O.2       1 <0>        -0.5823
     20 N3         -2.5698   -3.1296   -0.0955 N.am      1 <0>        -0.7412
     21 C14        -3.2889   -3.2897    1.1708 C.3       1 <0>         0.1830
     22 C15        -4.6767   -3.8100    0.8980 C.ar      1 <0>        -0.1212
     23 C16        -5.7155   -2.9239    0.6800 C.ar      1 <0>        -0.0812
     24 C17        -6.9886   -3.3983    0.4303 C.ar      1 <0>        -0.1477
     25 C18        -7.2244   -4.7651    0.3978 C.ar      1 <0>         0.1153
     26 C19        -6.1803   -5.6521    0.6164 C.ar      1 <0>        -0.1477
     27 C20        -4.9079   -5.1726    0.8606 C.ar      1 <0>        -0.0814
     28 O3         -8.4760   -5.2343    0.1527 O.3       1 <0>        -0.4997
     29 H2          1.1580    1.8889   -0.0045 H         1 <0>         0.0517
     30 H3         -0.4708    1.8897   -0.7223 H         1 <0>         0.0501
     31 H4         -0.2780    1.8678    1.0470 H         1 <0>         0.0551
     32 H5          0.7554   -0.3819    0.9066 H         1 <0>         0.0690
     33 H6         -0.8734   -0.3811    0.1888 H         1 <0>         0.0690
     34 H7          0.1216   -0.1300   -2.0686 H         1 <0>         0.0716
     35 H8          1.7504   -0.1308   -1.3508 H         1 <0>         0.0753
     36 H9          4.1218   -3.8595   -3.5768 H         1 <0>         0.0809
     37 H10         2.7724   -3.2040   -4.5401 H         1 <0>         0.1067
     38 H11         5.1217   -2.1290   -4.8915 H         1 <0>         0.0961
     39 H12         3.7495   -1.0228   -4.6236 H         1 <0>         0.0897
     40 H13         5.3181   -0.9625    0.3498 H         1 <0>         0.1354
     41 H14         7.2486    0.5203   -0.4897 H         1 <0>         0.1885
     42 H15         2.9372   -1.8932   -0.5482 H         1 <0>         0.1016
     43 H16         3.9439   -3.3227   -0.9026 H         1 <0>         0.0885
     44 H17        -1.0766   -2.7485   -2.0993 H         1 <0>         0.4058
     45 H18        -3.0064   -3.3518   -0.9327 H         1 <0>         0.3984
     46 H19        -2.7542   -3.9963    1.8055 H         1 <0>         0.0772
     47 H20        -3.3549   -2.3258    1.6755 H         1 <0>         0.0774
     48 H21        -5.5315   -1.8600    0.7054 H         1 <0>         0.1298
     49 H22        -7.7999   -2.7058    0.2607 H         1 <0>         0.1314
     50 H23        -6.3612   -6.7165    0.5917 H         1 <0>         0.1314
     51 H24        -4.0939   -5.8628    1.0265 H         1 <0>         0.1297
     52 H25        -8.6652   -5.3794   -0.7844 H         1 <0>         0.3936
@<TRIPOS>BOND
     1    1    2 1
     2    1   29 1
     3    1   30 1
     4    1   31 1
     5    2    3 1
     6    2   32 1
     7    2   33 1
     8    3    4 1
     9    3   34 1
    10    3   35 1
    11    4    5 1
    12    4    6 1
    13    4   17 1
    14    6    7 2
    15    6    8 am
    16    8   16 1
    17    8    9 1
    18    9   10 1
    19    9   36 1
    20    9   37 1
    21   10   11 1
    22   10   38 1
    23   10   39 1
    24   11   15 1
    25   11   12 2
    26   12   13 1
    27   12   16 1
    28   13   14 2
    29   13   40 1
    30   14   15 1
    31   14   41 1
    32   16   42 1
    33   16   43 1
    34   17   18 am
    35   17   44 1
    36   18   19 2
    37   18   20 am
    38   20   21 1
    39   20   45 1
    40   21   22 1
    41   21   46 1
    42   21   47 1
    43   22   27 ar
    44   22   23 ar
    45   23   24 ar
    46   23   48 1
    47   24   25 ar
    48   24   49 1
    49   25   26 ar
    50   25   28 1
    51   26   27 ar
    52   26   50 1
    53   27   51 1
    54   28   52 1
@<TRIPOS>MOLECULE
ZINC67082959
   47    49     0     0     0
SMALL
USER_CHARGES

@<TRIPOS>ATOM
      1 C1         -0.0184    1.5028    0.0103 C.3       1 <0>        -0.1112
      2 C2          0.0021   -0.0041    0.0020 C.2       1 <0>        -0.0134
      3 C3          0.0067   -0.7285   -1.1658 C.2       1 <0>        -0.1851
      4 C4          0.0259   -2.0828   -1.1013 C.2       1 <0>        -0.2043
      5 S1          0.0382   -2.4164    0.5452 S.3       1 <0>         0.1970
      6 C5          0.0233   -0.7477    1.1721 C.2       1 <0>        -0.2723
      7 C6          0.0302   -0.2828    2.5623 C.2       1 <0>         0.6141
      8 O1          0.0163    0.9096    2.8053 O.2       1 <0>        -0.5128
      9 N1          0.0519   -1.1760    3.5714 N.am      1 <0>        -0.5279
     10 N2          0.0584   -0.7317    4.9001 N.am      1 <0>        -0.5267
     11 C7          0.0802   -1.6248    5.9092 C.2       1 <0>         0.7151
     12 O2          0.0859   -1.2392    7.0623 O.2       1 <0>        -0.5634
     13 N3          0.0956   -2.9454    5.6401 N.am      1 <0>        -0.7443
     14 C8          0.1192   -3.9162    6.7370 C.3       1 <0>         0.1361
     15 C9          0.1330   -5.3343    6.1627 C.3       1 <0>        -0.1275
     16 C10         0.1576   -6.3482    7.3083 C.3       1 <0>        -0.0256
     17 C11         0.1713   -7.7449    6.7427 C.2       1 <0>         0.0558
     18 N4          1.2041   -8.4870    6.4330 N.2       1 <0>        -0.5131
     19 C12         1.0712   -9.7120    5.9382 C.2       1 <0>         0.0655
     20 C13        -0.2140  -10.1268    5.7805 C.2       1 <0>        -0.2055
     21 S2         -1.1397   -8.7336    6.3621 S.3       1 <0>         0.1029
     22 C14        -0.6905  -11.4361    5.2510 C.3       1 <0>        -0.0355
     23 C15         0.4924  -12.1322    4.5583 C.3       1 <0>        -0.1144
     24 C16         1.7146  -12.0624    5.4781 C.3       1 <0>        -0.1216
     25 C17         2.2301  -10.6240    5.5614 C.3       1 <0>        -0.0399
     26 H1          1.0042    1.8801    0.0026 H         1 <0>         0.0797
     27 H2         -0.5455    1.8639   -0.8728 H         1 <0>         0.0698
     28 H3         -0.5286    1.8543    0.9071 H         1 <0>         0.0901
     29 H4         -0.0051   -0.2261   -2.1218 H         1 <0>         0.1434
     30 H5          0.0316   -2.7861   -1.9208 H         1 <0>         0.1931
     31 H6          0.0630   -2.1264    3.3777 H         1 <0>         0.4172
     32 H7          0.0474    0.2187    5.0937 H         1 <0>         0.4462
     33 H8          0.0910   -3.2530    4.7202 H         1 <0>         0.3911
     34 H9          1.0129   -3.7601    7.3412 H         1 <0>         0.0768
     35 H10        -0.7668   -3.7843    7.3580 H         1 <0>         0.0763
     36 H11        -0.7607   -5.4903    5.5586 H         1 <0>         0.0752
     37 H12         1.0190   -5.4661    5.5417 H         1 <0>         0.0793
     38 H13         1.0514   -6.1921    7.9125 H         1 <0>         0.1027
     39 H14        -0.7284   -6.2163    7.9293 H         1 <0>         0.0960
     40 H15        -1.0521  -12.0553    6.0720 H         1 <0>         0.0847
     41 H16        -1.4931  -11.2721    4.5320 H         1 <0>         0.0826
     42 H17         0.2401  -13.1748    4.3646 H         1 <0>         0.0774
     43 H18         0.7136  -11.6272    3.6180 H         1 <0>         0.0692
     44 H19         1.4366  -12.4047    6.4749 H         1 <0>         0.0672
     45 H20         2.5010  -12.7058    5.0836 H         1 <0>         0.0760
     46 H21         2.6325  -10.3234    4.5940 H         1 <0>         0.0812
     47 H22         3.0093  -10.5580    6.3207 H         1 <0>         0.0826
@<TRIPOS>BOND
     1    1    2 1
     2    1   26 1
     3    1   27 1
     4    1   28 1
     5    2    6 2
     6    2    3 1
     7    3    4 2
     8    3   29 1
     9    4    5 1
    10    4   30 1
    11    5    6 1
    12    6    7 1
    13    7    8 2
    14    7    9 am
    15    9   10 1
    16    9   31 1
    17   10   11 am
    18   10   32 1
    19   11   12 2
    20   11   13 am
    21   13   14 1
    22   13   33 1
    23   14   15 1
    24   14   34 1
    25   14   35 1
    26   15   16 1
    27   15   36 1
    28   15   37 1
    29   16   17 1
    30   16   38 1
    31   16   39 1
    32   17   21 1
    33   17   18 2
    34   18   19 1
    35   19   25 1
    36   19   20 2
    37   20   21 1
    38   20   22 1
    39   22   23 1
    40   22   40 1
    41   22   41 1
    42   23   24 1
    43   23   42 1
    44   23   43 1
    45   24   25 1
    46   24   44 1
    47   24   45 1
    48   25   46 1
    49   25   47 1
@<TRIPOS>MOLECULE
ZINC00967752
   39    40     0     0     0
SMALL
USER_CHARGES
6-hydroxy-5-methylene-1-(1,2,3-trihydroxy-2-methyl-propyl)-2-oxa-7,9-diazabicyclo[4.2.2]decane-8,10-dione
@<TRIPOS>ATOM
      1 C1         -2.0534    0.1382   -1.2973 C.3       1 <0>        -0.1376
      2 C2         -1.4438   -0.5360   -0.0665 C.3       1 <0>         0.1033
      3 C3         -0.1225    0.1491    0.2884 C.3       1 <0>         0.0568
      4 O1         -0.3624    1.5291    0.5709 O.3       1 <0>        -0.5606
      5 C4         -1.1870   -2.0136   -0.3690 C.3       1 <0>         0.0930
      6 H1         -0.8729   -2.5219    0.5426 H         1 <0>         0.1166
      7 C5         -2.4715   -2.6572   -0.8950 C.3       1 <0>         0.2871
      8 C6         -2.0792   -4.0776   -1.2518 C.2       1 <0>         0.5091
      9 O2         -0.9678   -4.3446   -1.6573 O.2       1 <0>        -0.4579
     10 N1         -3.0248   -5.0350   -1.0981 N.am      1 <0>        -0.7356
     11 C7         -4.3364   -4.7171   -0.5650 C.3       1 <0>         0.3813
     12 C8         -5.2470   -4.1160   -1.5830 C.2       1 <0>        -0.1736
     13 C9         -6.2149   -4.8573   -2.0624 C.2       1 <0>        -0.1073
     14 C10        -5.1147   -2.7124   -2.0869 C.3       1 <0>        -0.1148
     15 C11        -3.8180   -2.5797   -2.8834 C.3       1 <0>         0.0376
     16 O3         -2.7868   -1.9460   -2.0875 O.3       1 <0>        -0.3414
     17 C12        -4.1824   -3.6472    0.5090 C.2       1 <0>         0.4953
     18 O4         -4.7431   -3.7353    1.5808 O.2       1 <0>        -0.4871
     19 N2         -3.4037   -2.5947    0.1932 N.am      1 <0>        -0.7105
     20 O5         -4.9236   -5.8898    0.0023 O.3       1 <0>        -0.5183
     21 O6         -0.1593   -2.1262   -1.3555 O.3       1 <0>        -0.5174
     22 O7         -2.3483   -0.4253    1.0342 O.3       1 <0>        -0.5388
     23 H2         -1.4693   -0.1212   -2.1803 H         1 <0>         0.0728
     24 H3         -3.0802   -0.2035   -1.4275 H         1 <0>         0.0871
     25 H4         -2.0448    1.2196   -1.1608 H         1 <0>         0.0718
     26 H5          0.5674    0.0647   -0.5512 H         1 <0>         0.0668
     27 H6          0.3117   -0.3312    1.1652 H         1 <0>         0.0488
     28 H7          0.4332    2.0269    0.8043 H         1 <0>         0.3820
     29 H8         -2.8217   -5.9496   -1.3493 H         1 <0>         0.4099
     30 H9         -6.3368   -5.8741   -1.7195 H         1 <0>         0.1184
     31 H10        -6.8909   -4.4516   -2.8004 H         1 <0>         0.1119
     32 H11        -5.9623   -2.4756   -2.7300 H         1 <0>         0.0998
     33 H12        -5.0953   -2.0233   -1.2426 H         1 <0>         0.0912
     34 H13        -3.4796   -3.5710   -3.1852 H         1 <0>         0.0646
     35 H14        -4.0037   -1.9781   -3.7732 H         1 <0>         0.1136
     36 H15        -3.4594   -1.7892    0.7308 H         1 <0>         0.4214
     37 H16        -4.4104   -6.2764    0.7250 H         1 <0>         0.3973
     38 H17        -0.3711   -1.6957   -2.1951 H         1 <0>         0.3825
     39 H18        -2.0263   -0.8319    1.8504 H         1 <0>         0.3811
@<TRIPOS>BOND
     1    1    2 1
     2    1   23 1
     3    1   24 1
     4    1   25 1
     5    2    3 1
     6    2    5 1
     7    2   22 1
     8    3    4 1
     9    3   26 1
    10    3   27 1
    11    4   28 1
    12    5    6 1
    13    5    7 1
    14    5   21 1
    15    7   16 1
    16    7   19 1
    17    7    8 1
    18    8    9 2
    19    8   10 am
    20   10   11 1
    21   10   29 1
    22   11   12 1
    23   11   17 1
    24   11   20 1
    25   12   13 2
    26   12   14 1
    27   13   30 1
    28   13   31 1
    29   14   15 1
    30   14   32 1
    31   14   33 1
    32   15   16 1
    33   15   34 1
    34   15   35 1
    35   17   18 2
    36   17   19 am
    37   19   36 1
    38   20   37 1
    39   21   38 1
    40   22   39 1
@<TRIPOS>MOLECULE
ZINC05013154
   35    37     0     0     0
SMALL
USER_CHARGES
(2R,3S,4S,5S)-2-[5-amino-4-(1H-imidazol-2-yl)imidazol-1-yl]-5-(hydroxymethyl)tetrahydrofuran-3,4-diol
@<TRIPOS>ATOM
      1 C1          1.2924    1.7799   -0.0007 C.2       1 <0>        -0.0613
      2 C2          2.0601    0.6744   -0.0140 C.2       1 <0>        -0.0230
      3 N1          1.2579   -0.3995   -0.0121 N.2       1 <0>        -0.5086
      4 C3          0.0021   -0.0041    0.0020 C.2       1 <0>         0.3279
      5 N2         -0.0164    1.3615    0.0095 N.pl3     1 <0>        -0.5662
      6 H1         -0.8279    1.9457    0.0203 H         1 <0>         0.4296
      7 C4         -1.1807   -0.8841    0.0090 C.2       1 <0>        -0.0455
      8 C5         -1.1724   -2.2650   -0.0040 C.2       1 <0>         0.3629
      9 N3         -2.4814   -2.6598    0.0127 N.pl3     1 <0>        -0.4813
     10 C6         -3.2495   -1.5344    0.0257 C.2       1 <0>         0.1899
     11 N4         -2.4787   -0.4860    0.0236 N.2       1 <0>        -0.4533
     12 C7         -2.9693   -4.0411    0.0105 C.3       1 <0>         0.3059
     13 H2         -2.3133   -4.6648   -0.5969 H         1 <0>         0.1343
     14 C8         -3.0186   -4.5817    1.4527 C.3       1 <0>         0.0727
     15 H3         -2.4306   -5.4956    1.5379 H         1 <0>         0.1014
     16 C9         -4.5228   -4.8764    1.6926 C.3       1 <0>         0.0486
     17 H4         -4.8245   -4.5707    2.6945 H         1 <0>         0.0933
     18 C10        -5.2039   -3.9932    0.6163 C.3       1 <0>         0.0386
     19 H5         -5.2829   -2.9618    0.9599 H         1 <0>         0.0969
     20 O1         -4.3077   -4.0859   -0.5119 O.3       1 <0>        -0.3284
     21 C11        -6.5839   -4.5461    0.2550 C.3       1 <0>         0.0778
     22 O2         -7.1920   -3.7049   -0.7271 O.3       1 <0>        -0.5607
     23 O3         -4.8117   -6.2589    1.4752 O.3       1 <0>        -0.5466
     24 O4         -2.5481   -3.5950    2.3731 O.3       1 <0>        -0.5314
     25 N5         -0.0560   -3.0892   -0.0269 N.pl3     1 <0>        -0.8375
     26 H6          1.6395    2.8026    0.0011 H         1 <0>         0.1752
     27 H7          3.1398    0.6557   -0.0244 H         1 <0>         0.1695
     28 H8         -4.3292   -1.5155    0.0359 H         1 <0>         0.2019
     29 H9         -6.4779   -5.5543   -0.1455 H         1 <0>         0.0647
     30 H10        -7.2093   -4.5736    1.1473 H         1 <0>         0.0662
     31 H11        -8.0716   -3.9959   -1.0041 H         1 <0>         0.3871
     32 H12        -5.7525   -6.4769    1.5259 H         1 <0>         0.3867
     33 H13        -2.5574   -3.8822    3.2964 H         1 <0>         0.3895
     34 H14         0.8331   -2.7014   -0.0349 H         1 <0>         0.4313
     35 H15        -0.1647   -4.0530   -0.0348 H         1 <0>         0.3920
@<TRIPOS>BOND
     1    1    5 1
     2    1    2 2
     3    1   26 1
     4    2    3 1
     5    2   27 1
     6    3    4 2
     7    4    5 1
     8    4    7 1
     9    5    6 1
    10    7   11 1
    11    7    8 2
    12    8    9 1
    13    8   25 1
    14    9   10 1
    15    9   12 1
    16   10   11 2
    17   10   28 1
    18   12   13 1
    19   12   20 1
    20   12   14 1
    21   14   15 1
    22   14   16 1
    23   14   24 1
    24   16   17 1
    25   16   18 1
    26   16   23 1
    27   18   19 1
    28   18   20 1
    29   18   21 1
    30   21   22 1
    31   21   29 1
    32   21   30 1
    33   22   31 1
    34   23   32 1
    35   24   33 1
    36   25   34 1
    37   25   35 1
@<TRIPOS>MOLECULE
ZINC18165358
   33    32     0     0     0
SMALL
USER_CHARGES
[[(2S)-1-[(E)-(carbamothioylhydrazono)methyl]-2-ethoxy-propylidene]amino]thiourea
@<TRIPOS>ATOM
      1 C1         -3.2723   -1.8687   -0.7204 C.3       1 <0>        -0.1546
      2 C2         -1.8875   -1.2777   -0.9924 C.3       1 <0>         0.0556
      3 O1         -1.3184   -0.8140    0.2336 O.3       1 <0>        -0.3755
      4 C3         -0.0175   -0.2403    0.0902 C.3       1 <0>         0.1522
      5 H1          0.4980   -0.7133   -0.7457 H         1 <0>         0.0985
      6 C4         -0.1485    1.2608   -0.1750 C.3       1 <0>        -0.1691
      7 C5          0.7707   -0.4600    1.3557 C.2       1 <0>         0.1589
      8 N1          1.2172    0.5602    2.0297 N.2       1 <0>        -0.2178
      9 N2          1.8483    0.3619    3.2647 N.pl3     1 <0>        -0.5296
     10 C6          2.2070    1.4217    4.0161 C.2       1 <0>         0.5893
     11 S1          2.9781    1.1793    5.5253 S.2       1 <0>        -0.6017
     12 N3          1.9587    2.6723    3.5794 N.pl3     1 <0>        -0.7790
     13 C7          1.0339   -1.8190    1.8264 C.2       1 <0>         0.1239
     14 N4          1.6107   -2.0087    2.9779 N.2       1 <0>        -0.2926
     15 N5          1.8629   -3.3109    3.4290 N.pl3     1 <0>        -0.5291
     16 C8          2.4600   -3.5073    4.6211 C.2       1 <0>         0.5882
     17 S2          2.7682   -5.0986    5.1723 S.2       1 <0>        -0.5828
     18 N6          2.8146   -2.4510    5.3794 N.pl3     1 <0>        -0.7730
     19 H2         -3.1813   -2.7022   -0.0240 H         1 <0>         0.0640
     20 H3         -3.9158   -1.1025   -0.2880 H         1 <0>         0.0655
     21 H4         -3.7065   -2.2224   -1.6556 H         1 <0>         0.0763
     22 H5         -1.9786   -0.4442   -1.6889 H         1 <0>         0.0576
     23 H6         -1.2441   -2.0439   -1.4248 H         1 <0>         0.0558
     24 H7          0.8438    1.6984   -0.2844 H         1 <0>         0.0761
     25 H8         -0.7186    1.4197   -1.0904 H         1 <0>         0.0718
     26 H9         -0.6640    1.7338    0.6608 H         1 <0>         0.0730
     27 H10         2.0270   -0.5382    3.5791 H         1 <0>         0.4252
     28 H11         1.5218    2.8096    2.7243 H         1 <0>         0.4100
     29 H12         2.2169    3.4351    4.1202 H         1 <0>         0.4345
     30 H13         0.7498   -2.6655    1.2188 H         1 <0>         0.1558
     31 H14         1.6077   -4.0712    2.8832 H         1 <0>         0.4296
     32 H15         2.6400   -1.5494    5.0671 H         1 <0>         0.4048
     33 H16         3.2443   -2.5924    6.2374 H         1 <0>         0.4382
@<TRIPOS>BOND
     1    1    2 1
     2    1   19 1
     3    1   20 1
     4    1   21 1
     5    2    3 1
     6    2   22 1
     7    2   23 1
     8    3    4 1
     9    4    5 1
    10    4    6 1
    11    4    7 1
    12    6   24 1
    13    6   25 1
    14    6   26 1
    15    7    8 2
    16    7   13 1
    17    8    9 1
    18    9   10 1
    19    9   27 1
    20   10   11 2
    21   10   12 1
    22   12   28 1
    23   12   29 1
    24   13   14 2
    25   13   30 1
    26   14   15 1
    27   15   16 1
    28   15   31 1
    29   16   17 2
    30   16   18 1
    31   18   32 1
    32   18   33 1
@<TRIPOS>MOLECULE
ZINC36556659
   37    38     0     0     0
SMALL
USER_CHARGES

@<TRIPOS>ATOM
      1 C1         -0.0167    1.3776    0.0096 C.ar      1 <0>        -0.0937
      2 C2          1.1762    2.0883    0.0020 C.ar      1 <0>         0.1686
      3 C3          2.3882    1.4108   -0.0132 C.ar      1 <0>        -0.0920
      4 C4          2.4074    0.0292   -0.0213 C.ar      1 <0>        -0.1229
      5 C5          1.2143   -0.6820   -0.0137 C.ar      1 <0>         0.2311
      6 C6          0.0021   -0.0041    0.0020 C.ar      1 <0>        -0.1244
      7 Br1        -1.6225   -0.9718    0.0130 Br        1 <0>        -0.0372
      8 N1          1.2336   -2.0829   -0.0224 N.pl3     1 <0>        -0.8673
      9 Br2         4.0580   -0.8934   -0.0433 Br        1 <0>        -0.0360
     10 N2          1.1569    3.4881    0.0093 N.pl3     1 <0>        -0.7521
     11 C7          2.4154    4.2380    0.0013 C.3       1 <0>         0.2804
     12 H1          3.2003    3.6263   -0.4434 H         1 <0>         0.1253
     13 C8          2.2409    5.5195   -0.8180 C.3       1 <0>         0.0492
     14 H2          1.9223    5.2649   -1.8288 H         1 <0>         0.0710
     15 C9          1.1789    6.4006   -0.1531 C.3       1 <0>         0.0788
     16 H3          0.2202    5.8821   -0.1573 H         1 <0>         0.0729
     17 C10         1.6003    6.6871    1.2914 C.3       1 <0>         0.0916
     18 H4          0.8235    7.2676    1.7891 H         1 <0>         0.0697
     19 C11         1.7995    5.3606    2.0292 C.3       1 <0>         0.1048
     20 H5          0.8551    4.8173    2.0617 H         1 <0>         0.0790
     21 O1          2.7770    4.5765    1.3418 O.3       1 <0>        -0.3518
     22 C12         2.2784    5.6371    3.4558 C.3       1 <0>         0.0889
     23 O2          2.3527    4.4075    4.1801 O.3       1 <0>        -0.5665
     24 O3          2.8240    7.4251    1.2945 O.3       1 <0>        -0.5297
     25 O4          1.0604    7.6305   -0.8712 O.3       1 <0>        -0.5502
     26 O5          3.4827    6.2245   -0.8720 O.3       1 <0>        -0.5211
     27 H6         -0.9591    1.9048    0.0260 H         1 <0>         0.1368
     28 H7          3.3158    1.9638   -0.0191 H         1 <0>         0.1382
     29 H8          2.0802   -2.5562   -0.0336 H         1 <0>         0.4038
     30 H9          0.4003   -2.5794   -0.0171 H         1 <0>         0.4036
     31 H10         0.3103    3.9615    0.0196 H         1 <0>         0.3966
     32 H11         3.2645    6.1006    3.4246 H         1 <0>         0.0672
     33 H12         1.5768    6.3086    3.9508 H         1 <0>         0.0592
     34 H13         2.6502    4.5072    5.0948 H         1 <0>         0.3823
     35 H14         2.7709    8.2765    0.8390 H         1 <0>         0.3839
     36 H15         0.8018    7.5222   -1.7966 H         1 <0>         0.3854
     37 H16         4.2026    5.7226   -1.2780 H         1 <0>         0.3768
@<TRIPOS>BOND
     1    1    6 ar
     2    1    2 ar
     3    1   27 1
     4    2    3 ar
     5    2   10 1
     6    3    4 ar
     7    3   28 1
     8    4    5 ar
     9    4    9 1
    10    5    6 ar
    11    5    8 1
    12    6    7 1
    13    8   29 1
    14    8   30 1
    15   10   11 1
    16   10   31 1
    17   11   12 1
    18   11   21 1
    19   11   13 1
    20   13   14 1
    21   13   15 1
    22   13   26 1
    23   15   16 1
    24   15   17 1
    25   15   25 1
    26   17   18 1
    27   17   19 1
    28   17   24 1
    29   19   20 1
    30   19   21 1
    31   19   22 1
    32   22   23 1
    33   22   32 1
    34   22   33 1
    35   23   34 1
    36   24   35 1
    37   25   36 1
    38   26   37 1
@<TRIPOS>MOLECULE
ZINC58950405
   33    35     0     0     0
SMALL
USER_CHARGES

@<TRIPOS>ATOM
      1 C1          0.5136    1.2093   -0.1745 C.2       1 <0>        -0.1596
      2 C2          1.7979    1.7119   -0.2667 C.2       1 <0>        -0.0345
      3 C3          2.8408    0.8470   -0.3072 C.2       1 <0>        -0.1707
      4 S1          2.0144   -0.7327   -0.2139 S.3       1 <0>         0.1730
      5 C4          0.3349   -0.1335   -0.1273 C.2       1 <0>        -0.0787
      6 C5         -0.9484   -0.9172   -0.0271 C.3       1 <0>         0.1604
      7 H1         -1.7915   -0.2272    0.0063 H         1 <0>         0.1334
      8 C6         -0.9308   -1.7444    1.2291 C.2       1 <0>        -0.3164
      9 C7         -1.1645   -1.1296    2.4741 C.2       1 <0>         0.5722
     10 O1         -1.3795    0.0684    2.5362 O.2       1 <0>        -0.4878
     11 N1         -1.1483   -1.8751    3.5967 N.am      1 <0>        -0.6551
     12 H2         -1.3092   -1.4558    4.4564 H         1 <0>         0.4418
     13 C8         -0.9107   -3.1980    3.5317 C.2       1 <0>         0.7192
     14 O2         -0.9003   -3.8553    4.5545 O.2       1 <0>        -0.5113
     15 N2         -0.6841   -3.8040    2.3527 N.am      1 <0>        -0.6210
     16 H3         -0.5145   -4.7587    2.3273 H         1 <0>         0.4448
     17 C9         -0.6917   -3.0814    1.1832 C.2       1 <0>         0.4213
     18 O3         -0.4617   -3.7103    0.0148 O.3       1 <0>        -0.2450
     19 C10        -0.8357   -3.1390   -1.1427 C.2       1 <0>         0.4251
     20 C11        -1.0823   -1.8106   -1.2295 C.2       1 <0>        -0.3692
     21 C12        -1.4698   -1.2597   -2.4636 C.2       1 <0>         0.5897
     22 O4         -2.6420   -1.0013   -2.6744 O.2       1 <0>        -0.5276
     23 N3         -0.5449   -1.0175   -3.4136 N.am      1 <0>        -0.8500
     24 N4         -0.9695   -3.9195   -2.2605 N.pl3     1 <0>        -0.8252
     25 N5          4.2893    1.1371   -0.4042 N.pl3     1 <0>         0.0795
     26 O5          4.6742    2.2818   -0.4591 O.2       1 <0>        -0.1389
     27 O6          5.0873    0.2292   -0.4285 O.3       1 <0>        -0.1474
     28 H4         -0.3347    1.8768   -0.1361 H         1 <0>         0.1621
     29 H5          1.9679    2.7777   -0.3063 H         1 <0>         0.1624
     30 H6          0.3881   -1.2233   -3.2458 H         1 <0>         0.4017
     31 H7         -0.8123   -0.6375   -4.2651 H         1 <0>         0.4052
     32 H8         -0.7133   -4.8546   -2.2326 H         1 <0>         0.4151
     33 H9         -1.3204   -3.5370   -3.0799 H         1 <0>         0.4316
@<TRIPOS>BOND
     1    1    5 2
     2    1    2 1
     3    1   28 1
     4    2    3 2
     5    2   29 1
     6    3    4 1
     7    3   25 1
     8    4    5 1
     9    5    6 1
    10    6    7 1
    11    6   20 1
    12    6    8 1
    13    8   17 2
    14    8    9 1
    15    9   10 2
    16    9   11 am
    17   11   12 1
    18   11   13 am
    19   13   14 2
    20   13   15 am
    21   15   16 1
    22   15   17 1
    23   17   18 1
    24   18   19 1
    25   19   20 2
    26   19   24 1
    27   20   21 1
    28   21   22 2
    29   21   23 am
    30   23   30 1
    31   23   31 1
    32   24   32 1
    33   24   33 1
    34   25   26 2
    35   25   27 1
@<TRIPOS>MOLECULE
ZINC03865990
   16    16     0     0     0
SMALL
USER_CHARGES
1,1-dioxo-2,3-dihydrothiophen-3-amine
@<TRIPOS>ATOM
      1 C1         -0.0190    1.5478    0.0106 C.3       1 <0>        -0.6134
      2 C2          0.0021   -0.0041    0.0020 C.3       1 <0>         0.0555
      3 H1         -0.8188   -0.3779    0.6140 H         1 <0>         0.1857
      4 C3          1.2954   -0.5170    0.5488 C.2       1 <0>        -0.1469
      5 C4          2.3362    0.2709    0.6205 C.2       1 <0>        -0.5625
      6 S1          1.7983    1.8523   -0.0052 S.o2      1 <0>         2.4245
      7 O1          2.2916    1.9322   -1.3354 O.2       1 <0>        -0.9032
      8 O2          2.1651    2.8066    0.9817 O.2       1 <0>        -0.8837
      9 H2         -0.1550   -1.4914   -1.4128 H         1 <0>         0.4504
     10 H3         -1.0095   -0.1147   -1.7876 H         1 <0>         0.4503
     11 H4         -0.4993    1.9464   -0.8831 H         1 <0>         0.1721
     12 H5         -0.4821    1.9367    0.9174 H         1 <0>         0.1896
     13 H6          1.3702   -1.5406    0.8848 H         1 <0>         0.1725
     14 H7          3.3206    0.0163    0.9845 H         1 <0>         0.2121
     15 N1         -0.1441   -0.4731   -1.3872 N.4       1 <0>        -0.6459
     16 H8          0.6488   -0.1325   -1.9436 H         1 <0>         0.4429
@<TRIPOS>BOND
     1    1    6 1
     2    1    2 1
     3    1   11 1
     4    1   12 1
     5    2    3 1
     6    2    4 1
     7    2   15 1
     8    4    5 2
     9    4   13 1
    10    5    6 1
    11    5   14 1
    12    6    7 2
    13    6    8 2
    14    9   15 1
    15   10   15 1
    16   15   16 1
@<TRIPOS>MOLECULE
ZINC21992948
   26    26     0     0     0
SMALL
USER_CHARGES
methyl (2R)-1,4-diazepane-2-carboxylate
@<TRIPOS>ATOM
      1 C1          5.7265    2.7563    1.7656 C.3       1 <0>         0.0287
      2 O1          4.6463    1.8149    1.5306 O.3       1 <0>        -0.3335
      3 C2          3.4649    2.3256    1.1495 C.2       1 <0>         0.4587
      4 O2          3.3376    3.5198    1.0168 O.2       1 <0>        -0.4872
      5 C3          2.2973    1.4097    0.8873 C.3       1 <0>         0.0143
      6 H1          2.6122    0.4930    0.3673 H         1 <0>         0.1660
      7 C4          1.6709    1.0241    2.2035 C.3       1 <0>         0.0436
      8 N1          1.1954   -0.3700    2.0947 N.3       1 <0>        -0.6560
      9 C5         -0.0449   -0.5143    1.4597 C.3       1 <0>         0.0392
     10 C6          0.0021   -0.0041    0.0020 C.3       1 <0>        -0.1964
     11 C7         -0.0184    1.5032    0.0103 C.3       1 <0>         0.0017
     12 N2          1.3372    2.0988    0.0006 N.4       1 <0>        -0.5419
     13 H2          6.6306    2.2085    2.0699 H         1 <0>         0.1231
     14 H3          5.4360    3.4561    2.5630 H         1 <0>         0.0786
     15 H4          5.9312    3.3174    0.8419 H         1 <0>         0.0771
     16 H5          2.4202    1.1074    3.0045 H         1 <0>         0.1301
     17 H6          0.8274    1.6964    2.4191 H         1 <0>         0.1057
     18 H7         -0.3291   -1.5769    1.4475 H         1 <0>         0.1078
     19 H8         -0.8058    0.0625    2.0059 H         1 <0>         0.0879
     20 H9          0.9236   -0.3604   -0.4816 H         1 <0>         0.0864
     21 H10        -0.8713   -0.3845   -0.5480 H         1 <0>         0.1214
     22 H11        -0.5504    1.8676   -0.8809 H         1 <0>         0.1413
     23 H12        -0.5333    1.8579    0.9153 H         1 <0>         0.1271
     24 H13         1.2353    3.1479    0.3153 H         1 <0>         0.4614
     25 H14         1.9209   -0.9607    1.5162 H         1 <0>         0.3592
     26 H15         1.7031    2.0609   -1.0361 H         1 <0>         0.4556
@<TRIPOS>BOND
     1    1    2 1
     2    1   13 1
     3    1   14 1
     4    1   15 1
     5    2    3 1
     6    3    4 2
     7    3    5 1
     8    5    6 1
     9    5   12 1
    10    5    7 1
    11    7    8 1
    12    7   16 1
    13    7   17 1
    14    8    9 1
    15    8   25 1
    16    9   10 1
    17    9   18 1
    18    9   19 1
    19   10   11 1
    20   10   20 1
    21   10   21 1
    22   11   12 1
    23   11   22 1
    24   11   23 1
    25   12   24 1
    26   12   26 1
@<TRIPOS>MOLECULE
ZINC01530259
   12    11     0     0     0
SMALL
USER_CHARGES

@<TRIPOS>ATOM
      1 C1         -0.0187    1.5258    0.0104 C.3       1 <0>        -0.0427
      2 C2          0.0021   -0.0041    0.0020 C.3       1 <0>        -0.0041
      3 N1         -1.3761   -0.5125    0.0124 N.4       1 <0>        -0.6352
      4 C3          1.3623    2.0353   -0.0000 C.1       1 <0>         0.1759
      5 N2          2.4280    2.4285   -0.0081 N.1       1 <0>        -0.3683
      6 H1         -0.5459    1.8868   -0.8726 H         1 <0>         0.1316
      7 H2         -0.5289    1.8773    0.9072 H         1 <0>         0.1317
      8 H3          0.5123   -0.3556   -0.8948 H         1 <0>         0.1439
      9 H4          0.5293   -0.3651    0.8851 H         1 <0>         0.1439
     10 H5         -1.8484   -0.1871    0.8426 H         1 <0>         0.4390
     11 H6         -1.8641   -0.1783   -0.8050 H         1 <0>         0.4390
     12 H7         -1.3624   -1.5214    0.0069 H         1 <0>         0.4454
@<TRIPOS>BOND
     1    1    2 1
     2    1    4 1
     3    1    6 1
     4    1    7 1
     5    2    3 1
     6    2    8 1
     7    2    9 1
     8    3   10 1
     9    3   11 1
    10    3   12 1
    11    4    5 3
@<TRIPOS>MOLECULE
ZINC39134570
   20    21     0     0     0
SMALL
USER_CHARGES

@<TRIPOS>ATOM
      1 C1         -0.0170    1.4002    0.0097 C.2       1 <0>         0.0899
      2 C2          1.1076    2.1518    0.0030 C.2       1 <0>        -0.2472
      3 C3          2.4172    1.4737   -0.0692 C.2       1 <0>         0.4327
      4 C4          2.4188    0.0385    0.3372 C.2       1 <0>         0.1420
      5 N1          3.4606   -0.5565    0.8133 N.2       1 <0>        -0.3676
      6 C5          3.3921   -1.9284    1.3131 C.3       1 <0>         0.0121
      7 C6          2.2853   -2.7048    0.6603 C.2       1 <0>         0.4879
      8 O1          2.3807   -3.9103    0.5682 O.2       1 <0>        -0.4573
      9 N2          1.1861   -2.0905    0.1738 N.am      1 <0>        -0.6432
     10 C7          1.1498   -0.7019    0.1596 C.2       1 <0>         0.1831
     11 C8          0.0021   -0.0041    0.0020 C.2       1 <0>        -0.1883
     12 N3          3.5015    2.0893   -0.4630 N.pl3     1 <0>        -0.6491
     13 H1         -0.9728    1.9027    0.0262 H         1 <0>         0.1735
     14 H2          1.0486    3.2291    0.0494 H         1 <0>         0.1843
     15 H3          4.3409   -2.4268    1.1140 H         1 <0>         0.1756
     16 H4          3.2233   -1.9062    2.3897 H         1 <0>         0.1741
     17 H5         -0.9251   -0.5413   -0.1330 H         1 <0>         0.1641
     18 H6          3.4625    3.0238   -0.7203 H         1 <0>         0.4507
     19 H7          4.3450    1.6115   -0.4979 H         1 <0>         0.4452
     20 H8          0.4365   -2.6084   -0.1591 H         1 <0>         0.4377
@<TRIPOS>BOND
     1    1   11 1
     2    1    2 2
     3    1   13 1
     4    2    3 1
     5    2   14 1
     6    3    4 1
     7    3   12 2
     8    4   10 1
     9    4    5 2
    10    5    6 1
    11    6    7 1
    12    6   15 1
    13    6   16 1
    14    7    8 2
    15    7    9 am
    16    9   10 1
    17    9   20 1
    18   10   11 2
    19   11   17 1
    20   12   18 1
    21   12   19 1
@<TRIPOS>MOLECULE
ZINC42373549
   25    25     0     0     0
SMALL
USER_CHARGES

@<TRIPOS>ATOM
      1 C1         -0.0184    1.5028    0.0103 C.3       1 <0>        -0.0863
      2 C2          0.0021   -0.0041    0.0020 C.2       1 <0>         0.3305
      3 N1         -1.0442   -0.7826    0.0026 N.2       1 <0>        -0.5356
      4 C3         -0.6626   -2.0647   -0.0061 C.2       1 <0>         0.2107
      5 N2          0.6384   -2.1175   -0.0124 N.2       1 <0>        -0.3335
      6 O1          1.0975   -0.7739   -0.0130 O.3       1 <0>        -0.0721
      7 C4         -1.5877   -3.2543   -0.0079 C.3       1 <0>         0.1321
      8 H1         -2.5956   -2.9303   -0.2671 H         1 <0>         0.1788
      9 C5         -1.5992   -3.8935    1.3822 C.3       1 <0>        -0.1116
     10 C6         -2.0862   -2.8702    2.4101 C.3       1 <0>        -0.1502
     11 C7         -2.5385   -5.1012    1.3804 C.3       1 <0>        -0.1693
     12 N3         -1.1201   -4.2368   -0.9948 N.4       1 <0>        -0.6340
     13 H2          1.0042    1.8801    0.0026 H         1 <0>         0.1098
     14 H3         -0.5455    1.8639   -0.8728 H         1 <0>         0.1220
     15 H4         -0.5286    1.8543    0.9071 H         1 <0>         0.1221
     16 H5         -0.5913   -4.2175    1.6414 H         1 <0>         0.1029
     17 H6         -1.4170   -2.0098    2.4113 H         1 <0>         0.0604
     18 H7         -3.0941   -2.5462    2.1508 H         1 <0>         0.0770
     19 H8         -2.0944   -3.3256    3.4004 H         1 <0>         0.0852
     20 H9         -2.1916   -5.8303    0.6481 H         1 <0>         0.0568
     21 H10        -2.5467   -5.5566    2.3707 H         1 <0>         0.0942
     22 H11        -3.5464   -4.7773    1.1211 H         1 <0>         0.0807
     23 H12        -0.1871   -4.5367   -0.7548 H         1 <0>         0.4408
     24 H13        -1.7396   -5.0333   -0.9959 H         1 <0>         0.4470
     25 H14        -1.1126   -3.8153   -1.9115 H         1 <0>         0.4417
@<TRIPOS>BOND
     1    1    2 1
     2    1   13 1
     3    1   14 1
     4    1   15 1
     5    2    6 1
     6    2    3 2
     7    3    4 1
     8    4    5 2
     9    4    7 1
    10    5    6 1
    11    7    8 1
    12    7    9 1
    13    7   12 1
    14    9   10 1
    15    9   11 1
    16    9   16 1
    17   10   17 1
    18   10   18 1
    19   10   19 1
    20   11   20 1
    21   11   21 1
    22   11   22 1
    23   12   23 1
    24   12   24 1
    25   12   25 1
@<TRIPOS>MOLECULE
ZINC06677044
   20    20     0     0     0
SMALL
USER_CHARGES
1-(1,2,4-triazol-1-yl)propan-2-amine
@<TRIPOS>ATOM
      1 C1          5.5821    0.1219    1.2050 C.3       1 <0>        -0.1815
      2 C2          4.0607   -0.0292    1.1452 C.3       1 <0>         0.0243
      3 H1          3.6228    0.3323    2.0756 H         1 <0>         0.1435
      4 C3          3.5129    0.7870   -0.0273 C.3       1 <0>         0.1077
      5 N1          2.0487    0.7394   -0.0135 N.pl3     1 <0>        -0.4168
      6 C4          1.2086    1.7887    0.0001 C.2       1 <0>         0.2935
      7 N2         -0.0160    1.3282    0.0093 N.2       1 <0>        -0.5297
      8 C5          0.0021   -0.0041    0.0020 C.2       1 <0>         0.2566
      9 N3          1.2440   -0.4116   -0.0120 N.2       1 <0>        -0.3831
     10 H2          5.8377    1.1726    1.3428 H         1 <0>         0.1116
     11 H3          5.9724   -0.4595    2.0403 H         1 <0>         0.0926
     12 H4          6.0200   -0.2395    0.2746 H         1 <0>         0.0880
     13 H5          3.8812    0.3694   -0.9643 H         1 <0>         0.1154
     14 H6          3.8436    1.8216    0.0643 H         1 <0>         0.1484
     15 H7          1.4945    2.8302    0.0027 H         1 <0>         0.2312
     16 H8         -0.8682   -0.6435    0.0066 H         1 <0>         0.2305
     17 H9          4.1109   -1.8039    0.1030 H         1 <0>         0.4339
     18 H10         4.0107   -1.9958    1.7520 H         1 <0>         0.4376
     19 N4          3.6910   -1.4433    0.9582 N.4       1 <0>        -0.6479
     20 H11         2.6694   -1.5185    0.8873 H         1 <0>         0.4439
@<TRIPOS>BOND
     1    1    2 1
     2    1   10 1
     3    1   11 1
     4    1   12 1
     5    2    3 1
     6    2    4 1
     7    2   19 1
     8    4    5 1
     9    4   13 1
    10    4   14 1
    11    5    9 1
    12    5    6 1
    13    6    7 2
    14    6   15 1
    15    7    8 1
    16    8    9 2
    17    8   16 1
    18   17   19 1
    19   18   19 1
    20   19   20 1
@<TRIPOS>MOLECULE
ZINC26474615
   17    17     0     0     0
SMALL
USER_CHARGES
(3R,4R)-4-aminotetrahydrofuran-3-ol
@<TRIPOS>ATOM
      1 C1          1.5033    2.4595   -1.3143 C.3       1 <0>         0.0221
      2 C2          1.4269    1.6468   -0.0027 C.3       1 <0>         0.0232
      3 H1          2.2076    0.8779    0.0934 H         1 <0>         0.1517
      4 C3         -0.0127    1.0858    0.0080 C.3       1 <0>         0.0675
      5 H2         -0.0809   -0.0051    0.1316 H         1 <0>         0.1072
      6 C4         -0.6358    1.6259   -1.2983 C.3       1 <0>         0.0103
      7 O1          0.1337    2.8067   -1.6135 O.3       1 <0>        -0.3519
      8 O2         -0.7301    1.5693    1.1454 O.3       1 <0>        -0.6235
      9 N1          1.6476    2.5203    1.1576 N.4       1 <0>        -0.6757
     10 H3          1.9191    1.8631   -2.1398 H         1 <0>         0.1086
     11 H4          2.0959    3.3780   -1.1909 H         1 <0>         0.1202
     12 H5         -0.5533    0.8631   -2.0866 H         1 <0>         0.0884
     13 H6         -1.6961    1.8638   -1.1278 H         1 <0>         0.1178
     14 H7         -1.7750    1.2655    1.3065 H         1 <0>         0.4557
     15 H8          1.5896    1.9251    2.0809 H         1 <0>         0.4625
     16 H9          0.8767    3.3047    1.1779 H         1 <0>         0.4612
     17 H10         2.6418    2.9851    1.0828 H         1 <0>         0.4550
@<TRIPOS>BOND
     1    1    7 1
     2    1    2 1
     3    1   10 1
     4    1   11 1
     5    2    3 1
     6    2    4 1
     7    2    9 1
     8    4    5 1
     9    4    6 1
    10    4    8 1
    11    6    7 1
    12    6   12 1
    13    6   13 1
    14    8   14 1
    15    9   15 1
    16    9   16 1
    17    9   17 1
@<TRIPOS>MOLECULE
ZINC37888063
   24    24     0     0     0
SMALL
USER_CHARGES

@<TRIPOS>ATOM
      1 C1         -0.0175    1.4396    0.0100 C.3       1 <0>         0.0366
      2 C2          1.4846    1.8216   -0.0023 C.3       1 <0>        -0.0064
      3 H1          1.8904    1.7715   -1.0127 H         1 <0>         0.1662
      4 C3          2.1054    0.7254    0.8974 C.3       1 <0>         0.0580
      5 H2          3.0550    0.3854    0.4843 H         1 <0>         0.1100
      6 C4          1.0683   -0.4141    0.8745 C.3       1 <0>         0.0104
      7 O1          0.0021   -0.0041    0.0020 O.3       1 <0>        -0.3411
      8 O2          2.2865    1.2138    2.2281 O.3       1 <0>        -0.5757
      9 N1          1.6910    3.1556    0.5773 N.4       1 <0>        -0.4876
     10 C5          1.0735    4.1674   -0.2905 C.3       1 <0>        -0.0086
     11 C6          1.2884    5.5567    0.3132 C.3       1 <0>         0.0458
     12 O3          2.6841    5.8634    0.3176 O.3       1 <0>        -0.5818
     13 H3         -0.5009    1.8119    0.9132 H         1 <0>         0.0865
     14 H4         -0.5180    1.8216   -0.8798 H         1 <0>         0.1251
     15 H5          1.5282   -1.3263    0.4944 H         1 <0>         0.1140
     16 H6          0.6809   -0.5829    1.8793 H         1 <0>         0.0891
     17 H7          2.6727    0.5677    2.8351 H         1 <0>         0.4187
     18 H8          1.2677    3.1938    1.4924 H         1 <0>         0.4331
     19 H9          1.5307    4.1261   -1.2791 H         1 <0>         0.1410
     20 H10         0.0050    3.9697   -0.3758 H         1 <0>         0.1436
     21 H11         0.7554    6.2980   -0.2822 H         1 <0>         0.0983
     22 H12         0.9100    5.5713    1.3353 H         1 <0>         0.0736
     23 H13         2.8949    6.7317    0.6876 H         1 <0>         0.4110
     24 H14         2.6801    3.3386    0.6562 H         1 <0>         0.4402
@<TRIPOS>BOND
     1    1    7 1
     2    1    2 1
     3    1   13 1
     4    1   14 1
     5    2    3 1
     6    2    4 1
     7    2    9 1
     8    4    5 1
     9    4    6 1
    10    4    8 1
    11    6    7 1
    12    6   15 1
    13    6   16 1
    14    8   17 1
    15    9   10 1
    16    9   18 1
    17    9   24 1
    18   10   11 1
    19   10   19 1
    20   10   20 1
    21   11   12 1
    22   11   21 1
    23   11   22 1
    24   12   23 1
@<TRIPOS>MOLECULE
ZINC39118263
   17    17     0     0     0
SMALL
USER_CHARGES

@<TRIPOS>ATOM
      1 C1         -0.0190    1.5488    0.0106 C.3       1 <0>        -0.1735
      2 C2          1.4981    1.8636   -0.0022 C.3       1 <0>         0.0538
      3 O1          2.0998    0.8432    0.8103 O.3       1 <0>        -0.3742
      4 C3          1.2632   -0.3192    0.8349 C.3       1 <0>         0.2446
      5 H1          0.9800   -0.5494    1.8620 H         1 <0>         0.0979
      6 C4          0.0021   -0.0041    0.0020 C.3       1 <0>        -0.0047
      7 H2          0.1031   -0.3851   -1.0142 H         1 <0>         0.1703
      8 N1         -1.2003   -0.5468    0.6483 N.4       1 <0>        -0.6241
      9 O2          1.9587   -1.4292    0.2636 O.3       1 <0>        -0.5607
     10 H3         -0.4917    1.9303    0.9156 H         1 <0>         0.1074
     11 H4         -0.5089    1.9400   -0.8811 H         1 <0>         0.1230
     12 H5          1.8861    1.8148   -1.0197 H         1 <0>         0.0862
     13 H6          1.6839    2.8479    0.4275 H         1 <0>         0.1155
     14 H7         -2.0204   -0.2303    0.1528 H         1 <0>         0.4450
     15 H8         -1.1653   -1.5550    0.6313 H         1 <0>         0.4439
     16 H9          2.7649   -1.6744    0.7379 H         1 <0>         0.4138
     17 H10        -1.2412   -0.2278    1.6046 H         1 <0>         0.4357
@<TRIPOS>BOND
     1    1    6 1
     2    1    2 1
     3    1   10 1
     4    1   11 1
     5    2    3 1
     6    2   12 1
     7    2   13 1
     8    3    4 1
     9    4    5 1
    10    4    6 1
    11    4    9 1
    12    6    7 1
    13    6    8 1
    14    8   14 1
    15    8   15 1
    16    8   17 1
    17    9   16 1
@<TRIPOS>MOLECULE
ZINC44466908
   27    27     0     0     0
SMALL
USER_CHARGES

@<TRIPOS>ATOM
      1 C1         -0.0183    1.5002    0.0103 C.3       1 <0>        -0.0900
      2 C2          1.4197    2.0299   -0.0006 C.3       1 <0>        -0.1559
      3 C3          2.2033    1.2645   -1.0759 C.3       1 <0>         0.0761
      4 H1          1.7130    1.3828   -2.0422 H         1 <0>         0.0645
      5 O1          2.2271   -0.1190   -0.7133 O.3       1 <0>        -0.3239
      6 C4          1.0596   -0.6900   -0.3429 C.2       1 <0>         0.0390
      7 C5          0.0021   -0.0041    0.0020 C.2       1 <0>        -0.2594
      8 C6          3.6333    1.8030   -1.1537 C.3       1 <0>        -0.1393
      9 C7          4.3718    1.1241   -2.3090 C.3       1 <0>         0.0342
     10 H2          4.3209    0.0422   -2.1870 H         1 <0>         0.1569
     11 C8          5.8357    1.5689   -2.3100 C.3       1 <0>         0.0509
     12 O2          6.5519    0.8479   -3.3146 O.3       1 <0>        -0.5803
     13 N1          3.7439    1.5035   -3.5817 N.4       1 <0>        -0.6351
     14 H3         -0.5284    1.8518    0.9071 H         1 <0>         0.0880
     15 H4         -0.5454    1.8614   -0.8728 H         1 <0>         0.0757
     16 H5          1.4179    3.0945   -0.2346 H         1 <0>         0.0867
     17 H6          1.8789    1.8677    0.9746 H         1 <0>         0.0863
     18 H7          0.9974   -1.7681   -0.3314 H         1 <0>         0.1668
     19 H8         -0.8910   -0.5373    0.2925 H         1 <0>         0.1296
     20 H9          3.6075    2.8797   -1.3217 H         1 <0>         0.1118
     21 H10         4.1518    1.5936   -0.2181 H         1 <0>         0.1272
     22 H11         5.8908    2.6370   -2.5205 H         1 <0>         0.0739
     23 H12         6.2772    1.3677   -1.3340 H         1 <0>         0.0969
     24 H13         7.4890    1.0794   -3.3722 H         1 <0>         0.4118
     25 H14         3.7910    2.5050   -3.6947 H         1 <0>         0.4307
     26 H15         4.2309    1.0558   -4.3436 H         1 <0>         0.4442
     27 H16         2.7785    1.2102   -3.5811 H         1 <0>         0.4327
@<TRIPOS>BOND
     1    1    7 1
     2    1    2 1
     3    1   14 1
     4    1   15 1
     5    2    3 1
     6    2   16 1
     7    2   17 1
     8    3    4 1
     9    3    5 1
    10    3    8 1
    11    5    6 1
    12    6    7 2
    13    6   18 1
    14    7   19 1
    15    8    9 1
    16    8   20 1
    17    8   21 1
    18    9   10 1
    19    9   11 1
    20    9   13 1
    21   11   12 1
    22   11   22 1
    23   11   23 1
    24   12   24 1
    25   13   25 1
    26   13   26 1
    27   13   27 1
@<TRIPOS>MOLECULE
ZINC03851596
   28    29     0     0     0
SMALL
USER_CHARGES
(1S,5R)-5-(aminomethyl)-1-methyl-8-oxabicyclo[3.2.1]octan-3-one
@<TRIPOS>ATOM
      1 C1         -2.3421    3.6451   -1.3886 C.3       1 <0>        -0.1406
      2 C2         -1.9779    2.4085   -0.5645 C.3       1 <0>         0.1185
      3 C3         -0.8101    1.6224   -1.2009 C.3       1 <0>        -0.1560
      4 C4         -0.0127    1.0858    0.0080 C.3       1 <0>        -0.1467
      5 C5         -0.7871    1.6095    1.2380 C.3       1 <0>         0.0726
      6 O1         -1.5092    2.7652    0.7540 O.3       1 <0>        -0.3586
      7 C6         -1.8232    0.5456    1.6394 C.3       1 <0>        -0.1932
      8 C7         -2.6813    0.2589    0.4223 C.2       1 <0>         0.3626
      9 O2         -2.9669   -0.8719    0.1092 O.2       1 <0>        -0.4208
     10 C8         -3.1659    1.4461   -0.3945 C.3       1 <0>        -0.1819
     11 C9          0.1557    1.9688    2.3882 C.3       1 <0>         0.0237
     12 H1         -2.6406    3.3386   -2.3911 H         1 <0>         0.0861
     13 H2         -3.1672    4.1714   -0.9088 H         1 <0>         0.0737
     14 H3         -1.4779    4.3062   -1.4530 H         1 <0>         0.0767
     15 H4         -0.1889    2.2840   -1.8046 H         1 <0>         0.0965
     16 H5         -1.1894    0.7977   -1.8044 H         1 <0>         0.0921
     17 H6          0.0021   -0.0041    0.0020 H         1 <0>         0.0946
     18 H7          1.0034    1.4803    0.0004 H         1 <0>         0.0968
     19 H8         -1.3508   -0.2832    1.9394 H         1 <0>         0.1023
     20 H9         -2.4453    0.9230    2.4510 H         1 <0>         0.1039
     21 H10        -3.9109    1.9165    0.0785 H         1 <0>         0.1038
     22 H11        -3.5126    1.1103   -1.3718 H         1 <0>         0.1130
     23 H12         0.7804    1.1084    2.6283 H         1 <0>         0.1504
     24 H13         0.7882    2.8055    2.0917 H         1 <0>         0.1523
     25 H14        -0.0330    2.5875    4.3427 H         1 <0>         0.4442
     26 H15        -1.2679    3.1000    3.3536 H         1 <0>         0.4448
     27 N1         -0.6457    2.3238    3.5727 N.4       1 <0>        -0.6476
     28 H16        -1.2084    1.5127    3.8550 H         1 <0>         0.4370
@<TRIPOS>BOND
     1    1    2 1
     2    1   12 1
     3    1   13 1
     4    1   14 1
     5    2    6 1
     6    2   10 1
     7    2    3 1
     8    3    4 1
     9    3   15 1
    10    3   16 1
    11    4    5 1
    12    4   17 1
    13    4   18 1
    14    5    6 1
    15    5    7 1
    16    5   11 1
    17    7    8 1
    18    7   19 1
    19    7   20 1
    20    8    9 2
    21    8   10 1
    22   10   21 1
    23   10   22 1
    24   11   23 1
    25   11   24 1
    26   11   27 1
    27   25   27 1
    28   26   27 1
    29   27   28 1
@<TRIPOS>MOLECULE
ZINC33487074
   23    24     0     0     0
SMALL
USER_CHARGES
(1-pyrazin-2-ylcyclopropyl)methanamine
@<TRIPOS>ATOM
      1 C1         -0.1282    3.6822   -1.7295 C.ar      1 <0>         0.0689
      2 C2         -0.2702    3.3366   -0.3970 C.ar      1 <0>         0.0595
      3 N1          0.5801    2.4931    0.1610 N.ar      1 <0>        -0.4348
      4 C3          1.5662    1.9796   -0.5534 C.ar      1 <0>         0.0735
      5 C4          1.7082    2.3251   -1.8855 C.ar      1 <0>         0.0662
      6 N2          0.8607    3.1726   -2.4423 N.ar      1 <0>        -0.4279
      7 C5          2.5363    1.0180    0.0831 C.3       1 <0>        -0.2138
      8 C6          2.9388    1.2787    1.5360 C.3       1 <0>        -0.1018
      9 C7          3.9379    1.5393    0.4070 C.3       1 <0>        -0.0870
     10 C8          2.4107   -0.4395   -0.3650 C.3       1 <0>         0.0467
     11 N3          1.1119   -0.9739    0.0655 N.4       1 <0>        -0.6847
     12 H1         -0.8232    4.3716   -2.1856 H         1 <0>         0.1807
     13 H2         -1.0759    3.7565    0.1869 H         1 <0>         0.1811
     14 H3          2.5143    1.9057   -2.4691 H         1 <0>         0.1699
     15 H4          2.2674    2.0326    1.9728 H         1 <0>         0.1221
     16 H5          2.8636    0.3438    2.1107 H         1 <0>         0.1072
     17 H6          4.6887    0.8198    0.0483 H         1 <0>         0.1204
     18 H7          4.0924    2.5086   -0.0895 H         1 <0>         0.1138
     19 H8          2.4844   -0.4937   -1.4612 H         1 <0>         0.1317
     20 H9          3.2193   -1.0330    0.0866 H         1 <0>         0.1398
     21 H10         1.0216   -2.0218   -0.2567 H         1 <0>         0.4603
     22 H11         0.3033   -0.3804   -0.3862 H         1 <0>         0.4513
     23 H12         1.0382   -0.9196    1.1617 H         1 <0>         0.4568
@<TRIPOS>BOND
     1    1    6 ar
     2    1    2 ar
     3    1   12 1
     4    2    3 ar
     5    2   13 1
     6    3    4 ar
     7    4    5 ar
     8    4    7 1
     9    5    6 ar
    10    5   14 1
    11    7    9 1
    12    7    8 1
    13    7   10 1
    14    8    9 1
    15    8   15 1
    16    8   16 1
    17    9   17 1
    18    9   18 1
    19   10   11 1
    20   10   19 1
    21   10   20 1
    22   11   21 1
    23   11   22 1
    24   11   23 1
@<TRIPOS>MOLECULE
ZINC43376165
   29    29     0     0     0
SMALL
USER_CHARGES

@<TRIPOS>ATOM
      1 C1         -1.6576   -0.2899    0.4702 C.3       1 <0>        -0.2047
      2 C2         -0.2450    0.2734    0.3021 C.3       1 <0>         0.0359
      3 H1         -0.2756    1.3602    0.3799 H         1 <0>         0.1642
      4 C3          0.6627   -0.2910    1.3968 C.3       1 <0>        -0.0005
      5 H2          0.2132   -0.1065    2.3725 H         1 <0>         0.1366
      6 C4          0.8342   -1.7973    1.1909 C.3       1 <0>         0.4546
      7 F1          1.4981   -2.0301   -0.0184 F         1 <0>        -0.1785
      8 F2          1.5845   -2.3297    2.2448 F         1 <0>        -0.1549
      9 F3         -0.4233   -2.4096    1.1578 F         1 <0>        -0.1639
     10 N1          1.9755    0.3649    1.3307 N.3       1 <0>        -0.5231
     11 C5          1.8363    1.8423    1.3941 C.3       1 <0>         0.0218
     12 C6          3.2440    2.3123    1.8390 C.3       1 <0>        -0.1232
     13 C7          3.6726    1.2178    2.8432 C.3       1 <0>        -0.1342
     14 C8          2.8148   -0.0111    2.4890 C.3       1 <0>         0.0274
     15 N2          0.2809   -0.1086   -1.0153 N.4       1 <0>        -0.6387
     16 H3         -1.9780   -0.1646    1.5045 H         1 <0>         0.1125
     17 H4         -2.3422    0.2432   -0.1894 H         1 <0>         0.0981
     18 H5         -1.6588   -1.3497    0.2154 H         1 <0>         0.1010
     19 H6          1.5875    2.2477    0.4134 H         1 <0>         0.0891
     20 H7          1.0851    2.1266    2.1310 H         1 <0>         0.0671
     21 H8          3.9262    2.3448    0.9895 H         1 <0>         0.0838
     22 H9          3.1892    3.2847    2.3284 H         1 <0>         0.0869
     23 H10         4.7312    0.9876    2.7230 H         1 <0>         0.0853
     24 H11         3.4682    1.5402    3.8642 H         1 <0>         0.0788
     25 H12         2.1818   -0.2784    3.3351 H         1 <0>         0.0650
     26 H13         3.4589   -0.8497    2.2242 H         1 <0>         0.0980
     27 H14         0.1932   -1.1065   -1.1360 H         1 <0>         0.4306
     28 H15        -0.2425    0.3647   -1.7365 H         1 <0>         0.4405
     29 H16         1.2531    0.1537   -1.0782 H         1 <0>         0.4446
@<TRIPOS>BOND
     1    1    2 1
     2    1   16 1
     3    1   17 1
     4    1   18 1
     5    2    3 1
     6    2    4 1
     7    2   15 1
     8    4    5 1
     9    4    6 1
    10    4   10 1
    11    6    7 1
    12    6    8 1
    13    6    9 1
    14   10   14 1
    15   10   11 1
    16   11   12 1
    17   11   19 1
    18   11   20 1
    19   12   13 1
    20   12   21 1
    21   12   22 1
    22   13   14 1
    23   13   23 1
    24   13   24 1
    25   14   25 1
    26   14   26 1
    27   15   27 1
    28   15   28 1
    29   15   29 1
@<TRIPOS>MOLECULE
ZINC50963093
   32    33     0     0     0
SMALL
USER_CHARGES

@<TRIPOS>ATOM
      1 C1         -0.0184    1.5028    0.0103 C.3       1 <0>        -0.0882
      2 C2          0.0021   -0.0041    0.0020 C.2       1 <0>         0.0420
      3 C3         -1.0783   -0.8055    0.0027 C.2       1 <0>        -0.2191
      4 C4         -0.6011   -2.1363   -0.0068 C.2       1 <0>        -0.1299
      5 C5          0.7423   -2.0686   -0.0126 C.2       1 <0>        -0.1090
      6 O1          1.1020   -0.7746   -0.0131 O.3       1 <0>        -0.1674
      7 C6          1.6840   -3.2450   -0.0226 C.3       1 <0>         0.1523
      8 H1          1.1588   -4.1339    0.3270 H         1 <0>         0.1759
      9 C7          2.1918   -3.4798   -1.4467 C.3       1 <0>         0.0638
     10 H2          1.3472   -3.6849   -2.1045 H         1 <0>         0.1081
     11 C8          3.1489   -4.6746   -1.4570 C.3       1 <0>        -0.1639
     12 C9          3.6992   -4.8658   -2.8737 C.3       1 <0>        -0.1245
     13 C10         4.3816   -3.5704   -3.3236 C.3       1 <0>        -0.1628
     14 C11         3.3769   -2.4182   -3.2412 C.3       1 <0>         0.0643
     15 O2          2.8809   -2.3148   -1.9050 O.3       1 <0>        -0.3821
     16 N1          2.8224   -2.9686    0.8638 N.4       1 <0>        -0.6357
     17 H3          1.0042    1.8801    0.0026 H         1 <0>         0.0823
     18 H4         -0.5455    1.8639   -0.8728 H         1 <0>         0.0981
     19 H5         -0.5286    1.8543    0.9071 H         1 <0>         0.0975
     20 H6         -2.1119   -0.4924    0.0097 H         1 <0>         0.1619
     21 H7         -1.2002   -3.0349   -0.0086 H         1 <0>         0.1606
     22 H8          3.9728   -4.4872   -0.7684 H         1 <0>         0.0681
     23 H9          2.6134   -5.5729   -1.1499 H         1 <0>         0.0941
     24 H10         4.4241   -5.6798   -2.8765 H         1 <0>         0.0828
     25 H11         2.8809   -5.1022   -3.5539 H         1 <0>         0.0755
     26 H12         5.2304   -3.3607   -2.6727 H         1 <0>         0.0750
     27 H13         4.7277   -3.6790   -4.3515 H         1 <0>         0.0878
     28 H14         3.8689   -1.4862   -3.5195 H         1 <0>         0.1086
     29 H15         2.5479   -2.6094   -3.9227 H         1 <0>         0.0626
     30 H16         3.3086   -2.1459    0.5402 H         1 <0>         0.4448
     31 H17         2.4875   -2.8138    1.8029 H         1 <0>         0.4398
     32 H18         3.4529   -3.7563    0.8571 H         1 <0>         0.4366
@<TRIPOS>BOND
     1    1    2 1
     2    1   17 1
     3    1   18 1
     4    1   19 1
     5    2    6 1
     6    2    3 2
     7    3    4 1
     8    3   20 1
     9    4    5 2
    10    4   21 1
    11    5    6 1
    12    5    7 1
    13    7    8 1
    14    7    9 1
    15    7   16 1
    16    9   10 1
    17    9   15 1
    18    9   11 1
    19   11   12 1
    20   11   22 1
    21   11   23 1
    22   12   13 1
    23   12   24 1
    24   12   25 1
    25   13   14 1
    26   13   26 1
    27   13   27 1
    28   14   15 1
    29   14   28 1
    30   14   29 1
    31   16   30 1
    32   16   31 1
    33   16   32 1
@<TRIPOS>MOLECULE
ZINC61589998
   34    35     0     0     0
SMALL
USER_CHARGES

@<TRIPOS>ATOM
      1 C1          0.5872   -0.0351    1.3334 C.3       1 <0>        -0.0097
      2 N1         -0.0175    0.1423    0.0064 N.3       1 <0>        -0.5062
      3 C2          0.9290   -0.2216   -1.0564 C.3       1 <0>         0.0040
      4 C3          2.2506   -0.8671   -0.6349 C.3       1 <0>        -0.2095
      5 C4          2.2322    0.5752   -1.1451 C.3       1 <0>        -0.1582
      6 C5         -1.2631   -0.6275   -0.1116 C.3       1 <0>         0.0898
      7 C6         -1.9379   -0.2989   -1.4400 C.3       1 <0>        -0.1384
      8 C7         -3.3585   -0.8541   -1.4781 C.3       1 <0>        -0.1311
      9 C8         -3.3194   -2.3808   -1.5931 C.3       1 <0>        -0.0958
     10 S1         -2.5042   -3.0556   -0.1146 S.3       1 <0>        -0.2309
     11 C9         -0.9443   -2.1241   -0.0443 C.3       1 <0>        -0.1185
     12 C10        -2.2012   -0.2556    1.0384 C.3       1 <0>        -0.0118
     13 N2         -2.4591    1.1903    1.0118 N.4       1 <0>        -0.6314
     14 H1          1.5209    0.5251    1.3850 H         1 <0>         0.0924
     15 H2         -0.0988    0.3309    2.0972 H         1 <0>         0.0674
     16 H3          0.7884   -1.0929    1.5025 H         1 <0>         0.0541
     17 H4          0.4800   -0.5576   -1.9911 H         1 <0>         0.1258
     18 H5          2.4177   -1.0218    0.4310 H         1 <0>         0.1038
     19 H6          2.6711   -1.6281   -1.2922 H         1 <0>         0.1027
     20 H7          2.6406    0.7631   -2.1380 H         1 <0>         0.1059
     21 H8          2.3872    1.3694   -0.4148 H         1 <0>         0.1010
     22 H9         -1.9722    0.7832   -1.5668 H         1 <0>         0.0876
     23 H10        -1.3598   -0.7365   -2.2539 H         1 <0>         0.0939
     24 H11        -3.8816   -0.5732   -0.5640 H         1 <0>         0.0712
     25 H12        -3.8861   -0.4398   -2.3373 H         1 <0>         0.0975
     26 H13        -4.3359   -2.7687   -1.6594 H         1 <0>         0.1193
     27 H14        -2.7579   -2.6662   -2.4827 H         1 <0>         0.0948
     28 H15        -0.3140   -2.4020   -0.8890 H         1 <0>         0.1063
     29 H16        -0.4275   -2.3462    0.8893 H         1 <0>         0.1176
     30 H17        -3.1422   -0.7946    0.9285 H         1 <0>         0.1581
     31 H18        -1.7371   -0.5245    1.9873 H         1 <0>         0.1393
     32 H19        -3.1092    1.4295    1.7454 H         1 <0>         0.4377
     33 H20        -1.5935    1.6890    1.1537 H         1 <0>         0.4386
     34 H21        -2.8517    1.4456    0.1181 H         1 <0>         0.4326
@<TRIPOS>BOND
     1    1    2 1
     2    1   14 1
     3    1   15 1
     4    1   16 1
     5    2    3 1
     6    2    6 1
     7    3    5 1
     8    3    4 1
     9    3   17 1
    10    4    5 1
    11    4   18 1
    12    4   19 1
    13    5   20 1
    14    5   21 1
    15    6   11 1
    16    6    7 1
    17    6   12 1
    18    7    8 1
    19    7   22 1
    20    7   23 1
    21    8    9 1
    22    8   24 1
    23    8   25 1
    24    9   10 1
    25    9   26 1
    26    9   27 1
    27   10   11 1
    28   11   28 1
    29   11   29 1
    30   12   13 1
    31   12   30 1
    32   12   31 1
    33   13   32 1
    34   13   33 1
    35   13   34 1
@<TRIPOS>MOLECULE
ZINC11729991
   35    36     0     0     0
SMALL
USER_CHARGES
(1S)-1-(2,2-dimethylchroman-6-yl)ethanamine
@<TRIPOS>ATOM
      1 C1         -0.1755    1.0519   -2.4354 C.3       1 <0>        -0.1777
      2 C2         -0.7955    1.5269   -1.1198 C.3       1 <0>         0.0941
      3 H1         -0.7938    2.6165   -1.0898 H         1 <0>         0.1434
      4 C3         -2.2127    1.0239   -1.0219 C.ar      1 <0>        -0.1902
      5 C4         -2.4583   -0.2802   -0.6329 C.ar      1 <0>        -0.0883
      6 C5         -3.7564   -0.7385   -0.5397 C.ar      1 <0>        -0.1394
      7 C6         -4.8201    0.1042   -0.8469 C.ar      1 <0>         0.1708
      8 C7         -4.5712    1.4080   -1.2378 C.ar      1 <0>        -0.1479
      9 C8         -3.2661    1.8635   -1.3261 C.ar      1 <0>        -0.0506
     10 C9         -5.6949    2.3575   -1.5677 C.3       1 <0>        -0.0858
     11 C10        -6.9780    1.5659   -1.8322 C.3       1 <0>        -0.1519
     12 C11        -7.1604    0.5501   -0.6971 C.3       1 <0>         0.1115
     13 O1         -6.0835   -0.3865   -0.7538 O.3       1 <0>        -0.3005
     14 C12        -8.4914   -0.1839   -0.8713 C.3       1 <0>        -0.1439
     15 C13        -7.1435    1.2738    0.6508 C.3       1 <0>        -0.1774
     16 H2         -0.1772   -0.0377   -2.4654 H         1 <0>         0.0818
     17 H3         -0.7571    1.4393   -3.2719 H         1 <0>         0.1063
     18 H4          0.8496    1.4157   -2.5062 H         1 <0>         0.0838
     19 H5         -1.6348   -0.9384   -0.3983 H         1 <0>         0.1255
     20 H6         -3.9472   -1.7560   -0.2321 H         1 <0>         0.1422
     21 H7         -3.0714    2.8800   -1.6346 H         1 <0>         0.1350
     22 H8         -5.8538    3.0364   -0.7300 H         1 <0>         0.0878
     23 H9         -5.4344    2.9331   -2.4559 H         1 <0>         0.0888
     24 H10        -6.8966    1.0419   -2.7845 H         1 <0>         0.0812
     25 H11        -7.8304    2.2447   -1.8581 H         1 <0>         0.0941
     26 H12        -8.6085   -0.9181   -0.0742 H         1 <0>         0.0721
     27 H13        -9.3106    0.5338   -0.8275 H         1 <0>         0.0850
     28 H14        -8.5034   -0.6905   -1.8364 H         1 <0>         0.0702
     29 H15        -6.1978    1.8030    0.7673 H         1 <0>         0.0617
     30 H16        -7.9665    1.9874    0.6903 H         1 <0>         0.0806
     31 H17        -7.2544    0.5465    1.4551 H         1 <0>         0.0707
     32 H18         0.0021   -0.0041    0.0020 H         1 <0>         0.4324
     33 H19         0.9253    1.3792    0.0006 H         1 <0>         0.4387
     34 N1         -0.0252    1.0139    0.0269 N.4       1 <0>        -0.6456
     35 H20        -0.4761    1.3157    0.8986 H         1 <0>         0.4417
@<TRIPOS>BOND
     1    1    2 1
     2    1   16 1
     3    1   17 1
     4    1   18 1
     5    2    3 1
     6    2    4 1
     7    2   34 1
     8    4    9 ar
     9    4    5 ar
    10    5    6 ar
    11    5   19 1
    12    6    7 ar
    13    6   20 1
    14    7   13 1
    15    7    8 ar
    16    8    9 ar
    17    8   10 1
    18    9   21 1
    19   10   11 1
    20   10   22 1
    21   10   23 1
    22   11   12 1
    23   11   24 1
    24   11   25 1
    25   12   13 1
    26   12   14 1
    27   12   15 1
    28   14   26 1
    29   14   27 1
    30   14   28 1
    31   15   29 1
    32   15   30 1
    33   15   31 1
    34   32   34 1
    35   33   34 1
    36   34   35 1
@<TRIPOS>MOLECULE
ZINC37240623
   36    37     0     0     0
SMALL
USER_CHARGES

@<TRIPOS>ATOM
      1 C1         -0.0187    1.5258    0.0104 C.3       1 <0>        -0.1463
      2 C2          0.0021   -0.0041    0.0020 C.3       1 <0>        -0.0521
      3 C3          0.7182   -0.4975   -1.2568 C.3       1 <0>        -0.1471
      4 C4          0.7309   -0.5033    1.2229 C.ar      1 <0>        -0.0741
      5 C5          2.0490   -0.1487    1.4344 C.ar      1 <0>        -0.1089
      6 C6          2.7186   -0.6067    2.5541 C.ar      1 <0>        -0.1062
      7 C7          2.0715   -1.4206    3.4660 C.ar      1 <0>        -0.1168
      8 C8          0.7538   -1.7786    3.2609 C.ar      1 <0>        -0.1180
      9 C9          0.0764   -1.3158    2.1396 C.ar      1 <0>         0.1643
     10 N1         -1.2582   -1.6717    1.9317 N.pl3     1 <0>        -0.6714
     11 C10        -1.7258   -2.8641    1.2017 C.3       1 <0>         0.1286
     12 C11        -3.1428   -3.1420    1.7624 C.3       1 <0>        -0.1501
     13 C12        -3.6847   -1.7025    1.9667 C.3       1 <0>         0.0091
     14 H1         -4.0813   -1.3036    1.0331 H         1 <0>         0.1576
     15 C13        -2.4293   -0.9225    2.4102 C.3       1 <0>         0.1174
     16 N2         -4.7108   -1.6778    3.0177 N.4       1 <0>        -0.6296
     17 H2          1.0039    1.9031    0.0027 H         1 <0>         0.0603
     18 H3         -0.5459    1.8868   -0.8726 H         1 <0>         0.0601
     19 H4         -0.5289    1.8773    0.9072 H         1 <0>         0.0512
     20 H5         -1.0205   -0.3814    0.0098 H         1 <0>         0.0770
     21 H6          1.7408   -0.1202   -1.2645 H         1 <0>         0.0597
     22 H7          0.7330   -1.5874   -1.2628 H         1 <0>         0.0544
     23 H8          0.1910   -0.1364   -2.1398 H         1 <0>         0.0602
     24 H9          2.5573    0.4868    0.7243 H         1 <0>         0.1271
     25 H10         3.7494   -0.3285    2.7167 H         1 <0>         0.1283
     26 H11         2.5976   -1.7769    4.3393 H         1 <0>         0.1273
     27 H12         0.2492   -2.4145    3.9732 H         1 <0>         0.1200
     28 H13        -1.7743   -2.6593    0.1322 H         1 <0>         0.0670
     29 H14        -1.0677   -3.7108    1.3972 H         1 <0>         0.0829
     30 H15        -3.7487   -3.6886    1.0397 H         1 <0>         0.1098
     31 H16        -3.0899   -3.6777    2.7101 H         1 <0>         0.0968
     32 H17        -2.4022   -0.8470    3.4972 H         1 <0>         0.0670
     33 H18        -2.4384    0.0734    1.9674 H         1 <0>         0.0809
     34 H19        -4.3176   -2.0243    3.8799 H         1 <0>         0.4348
     35 H20        -5.0325   -0.7308    3.1514 H         1 <0>         0.4387
     36 H21        -5.4871   -2.2612    2.7436 H         1 <0>         0.4403
@<TRIPOS>BOND
     1    1    2 1
     2    1   17 1
     3    1   18 1
     4    1   19 1
     5    2    3 1
     6    2    4 1
     7    2   20 1
     8    3   21 1
     9    3   22 1
    10    3   23 1
    11    4    9 ar
    12    4    5 ar
    13    5    6 ar
    14    5   24 1
    15    6    7 ar
    16    6   25 1
    17    7    8 ar
    18    7   26 1
    19    8    9 ar
    20    8   27 1
    21    9   10 1
    22   10   15 1
    23   10   11 1
    24   11   12 1
    25   11   28 1
    26   11   29 1
    27   12   13 1
    28   12   30 1
    29   12   31 1
    30   13   14 1
    31   13   15 1
    32   13   16 1
    33   15   32 1
    34   15   33 1
    35   16   34 1
    36   16   35 1
    37   16   36 1
@<TRIPOS>MOLECULE
ZINC41726965
   41    42     0     0     0
SMALL
USER_CHARGES

@<TRIPOS>ATOM
      1 C1         -0.6016    1.5598    0.1919 C.3       1 <0>        -0.0962
      2 C2         -0.2947    0.0899    0.0648 C.2       1 <0>         0.0401
      3 C3         -0.3359   -0.6313   -1.0766 C.2       1 <0>        -0.1967
      4 C4          0.0186   -1.9483   -0.7499 C.2       1 <0>        -0.2447
      5 C5          0.2630   -1.9884    0.5799 C.2       1 <0>         0.0836
      6 N1          0.0784   -0.7403    1.0828 N.pl3     1 <0>        -0.4178
      7 C6          0.2480   -0.3503    2.4847 C.3       1 <0>         0.1179
      8 C7         -0.8124   -1.0470    3.3397 C.3       1 <0>        -0.1703
      9 C8          1.6412   -0.7629    2.9639 C.3       1 <0>        -0.1702
     10 C9          0.6719   -3.2350    1.3255 C.3       1 <0>        -0.0594
     11 C10         0.3549   -4.4510    0.4466 C.3       1 <0>        -0.0445
     12 C11         0.9279   -4.2317   -0.9562 C.3       1 <0>        -0.1328
     13 C12         0.1253   -3.1371   -1.6706 C.3       1 <0>         0.1178
     14 H1         -0.8717   -3.5087   -1.9074 H         1 <0>         0.1428
     15 N2          0.8145   -2.7450   -2.9071 N.4       1 <0>        -0.6329
     16 C13        -1.1615   -4.6325    0.3553 C.3       1 <0>        -0.1576
     17 C14         0.9818   -5.7030    1.0633 C.3       1 <0>        -0.1490
     18 H2          0.3251    2.1308    0.1345 H         1 <0>         0.0769
     19 H3         -1.2662    1.8635   -0.6170 H         1 <0>         0.0867
     20 H4         -1.0858    1.7484    1.1501 H         1 <0>         0.0699
     21 H5         -0.5943   -0.2624   -2.0582 H         1 <0>         0.1399
     22 H6          0.1371    0.7301    2.5773 H         1 <0>         0.1069
     23 H7         -0.6251   -2.1207    3.3473 H         1 <0>         0.0675
     24 H8         -0.7672   -0.6630    4.3588 H         1 <0>         0.0844
     25 H9         -1.8005   -0.8535    2.9221 H         1 <0>         0.0668
     26 H10         2.3931   -0.3575    2.2868 H         1 <0>         0.0657
     27 H11         1.8097   -0.3746    3.9684 H         1 <0>         0.0849
     28 H12         1.7134   -1.8504    2.9779 H         1 <0>         0.0694
     29 H13         1.7409   -3.2029    1.5358 H         1 <0>         0.0890
     30 H14         0.1153   -3.3027    2.2603 H         1 <0>         0.0895
     31 H15         1.9711   -3.9252   -0.8789 H         1 <0>         0.0878
     32 H16         0.8628   -5.1595   -1.5245 H         1 <0>         0.0940
     33 H17         1.7399   -2.4101   -2.6847 H         1 <0>         0.4323
     34 H18         0.8841   -3.5429   -3.5209 H         1 <0>         0.4329
     35 H19        -1.6085   -3.7405   -0.0836 H         1 <0>         0.0632
     36 H20        -1.3870   -5.4968   -0.2694 H         1 <0>         0.0643
     37 H21        -1.5695   -4.7896    1.3538 H         1 <0>         0.0662
     38 H22         0.5733   -5.8598    2.0617 H         1 <0>         0.0681
     39 H23         0.7565   -6.5674    0.4387 H         1 <0>         0.0665
     40 H24         2.0621   -5.5738    1.1290 H         1 <0>         0.0622
     41 H25         0.2929   -2.0128   -3.3652 H         1 <0>         0.4347
@<TRIPOS>BOND
     1    1    2 1
     2    1   18 1
     3    1   19 1
     4    1   20 1
     5    2    6 1
     6    2    3 2
     7    3    4 1
     8    3   21 1
     9    4   13 1
    10    4    5 2
    11    5    6 1
    12    5   10 1
    13    6    7 1
    14    7    8 1
    15    7    9 1
    16    7   22 1
    17    8   23 1
    18    8   24 1
    19    8   25 1
    20    9   26 1
    21    9   27 1
    22    9   28 1
    23   10   11 1
    24   10   29 1
    25   10   30 1
    26   11   12 1
    27   11   16 1
    28   11   17 1
    29   12   13 1
    30   12   31 1
    31   12   32 1
    32   13   14 1
    33   13   15 1
    34   15   33 1
    35   15   34 1
    36   15   41 1
    37   16   35 1
    38   16   36 1
    39   16   37 1
    40   17   38 1
    41   17   39 1
    42   17   40 1
@<TRIPOS>MOLECULE
ZINC50327093
   35    36     0     0     0
SMALL
USER_CHARGES

@<TRIPOS>ATOM
      1 C1         -0.0187    1.5258    0.0104 C.3       1 <0>        -0.1498
      2 C2          0.0021   -0.0041    0.0020 C.3       1 <0>        -0.0977
      3 C3         -1.4117   -0.5257    0.0127 C.ar      1 <0>        -0.0466
      4 C4         -2.0507   -0.7660    1.2147 C.ar      1 <0>        -0.1064
      5 C5         -3.3476   -1.2445    1.2246 C.ar      1 <0>        -0.0810
      6 C6         -4.0056   -1.4822    0.0324 C.ar      1 <0>        -0.1473
      7 C7         -3.3670   -1.2410   -1.1697 C.ar      1 <0>        -0.1161
      8 C8         -2.0716   -0.7585   -1.1795 C.ar      1 <0>        -0.1056
      9 C9         -5.4191   -2.0048    0.0431 C.3       1 <0>         0.1502
     10 H1         -5.6301   -2.4620    1.0098 H         1 <0>         0.1489
     11 C10        -6.3774   -0.8661   -0.1940 C.2       1 <0>        -0.2188
     12 C11        -7.2442   -0.4361    0.6820 C.2       1 <0>        -0.0673
     13 C12        -8.0501    0.7165    0.1295 C.3       1 <0>        -0.1159
     14 C13        -7.2470    1.2046   -1.0985 C.3       1 <0>        -0.1233
     15 C14        -6.4565   -0.0681   -1.4747 C.3       1 <0>        -0.0980
     16 N1         -5.5783   -3.0079   -1.0183 N.4       1 <0>        -0.6344
     17 H2          1.0039    1.9031    0.0027 H         1 <0>         0.0675
     18 H3         -0.5459    1.8868   -0.8726 H         1 <0>         0.0570
     19 H4         -0.5289    1.8773    0.9072 H         1 <0>         0.0578
     20 H5          0.5123   -0.3556   -0.8948 H         1 <0>         0.0799
     21 H6          0.5293   -0.3651    0.8851 H         1 <0>         0.0807
     22 H7         -1.5366   -0.5803    2.1462 H         1 <0>         0.1359
     23 H8         -3.8465   -1.4329    2.1637 H         1 <0>         0.1326
     24 H9         -3.8810   -1.4271   -2.1011 H         1 <0>         0.1192
     25 H10        -1.5739   -0.5665   -2.1185 H         1 <0>         0.1344
     26 H11        -7.3693   -0.8501    1.6717 H         1 <0>         0.1375
     27 H12        -9.0399    0.3763   -0.1749 H         1 <0>         0.0938
     28 H13        -8.1321    1.5119    0.8702 H         1 <0>         0.0881
     29 H14        -7.9130    1.5076   -1.9064 H         1 <0>         0.0840
     30 H15        -6.5704    2.0148   -0.8267 H         1 <0>         0.0783
     31 H16        -5.4568    0.1931   -1.8217 H         1 <0>         0.0794
     32 H17        -6.9902   -0.6310   -2.2405 H         1 <0>         0.0763
     33 H18        -5.3830   -2.5846   -1.9131 H         1 <0>         0.4305
     34 H19        -4.9367   -3.7702   -0.8595 H         1 <0>         0.4382
     35 H20        -6.5247   -3.3577   -1.0111 H         1 <0>         0.4383
@<TRIPOS>BOND
     1    1    2 1
     2    1   17 1
     3    1   18 1
     4    1   19 1
     5    2    3 1
     6    2   20 1
     7    2   21 1
     8    3    8 ar
     9    3    4 ar
    10    4    5 ar
    11    4   22 1
    12    5    6 ar
    13    5   23 1
    14    6    7 ar
    15    6    9 1
    16    7    8 ar
    17    7   24 1
    18    8   25 1
    19    9   10 1
    20    9   11 1
    21    9   16 1
    22   11   15 1
    23   11   12 2
    24   12   13 1
    25   12   26 1
    26   13   14 1
    27   13   27 1
    28   13   28 1
    29   14   15 1
    30   14   29 1
    31   14   30 1
    32   15   31 1
    33   15   32 1
    34   16   33 1
    35   16   34 1
    36   16   35 1
@<TRIPOS>MOLECULE
ZINC50227963
   42    43     0     0     0
SMALL
USER_CHARGES

@<TRIPOS>ATOM
      1 C1         -0.0154    1.5203    0.1777 C.3       1 <0>        -0.1501
      2 C2          0.0037   -0.0068    0.0857 C.3       1 <0>        -0.0920
      3 H1          0.4955   -0.3089   -0.8390 H         1 <0>         0.0727
      4 C3         -1.4317   -0.5364    0.0965 C.3       1 <0>        -0.1065
      5 C4         -1.4126   -2.0635    0.0045 C.3       1 <0>         0.0746
      6 H2         -0.9208   -2.3656   -0.9202 H         1 <0>         0.0556
      7 C5         -0.6483   -2.6369    1.1995 C.3       1 <0>        -0.0993
      8 C6          0.7871   -2.1073    1.1886 C.3       1 <0>        -0.0626
      9 C7          0.7679   -0.5802    1.2807 C.3       1 <0>        -0.1077
     10 C8          1.4773   -2.5314   -0.1093 C.3       1 <0>        -0.1484
     11 C9          1.5513   -2.6808    2.3836 C.3       1 <0>        -0.1441
     12 N1         -2.7907   -2.5720    0.0149 N.3       1 <0>        -0.5092
     13 C10        -3.5584   -2.0529   -1.1459 C.3       1 <0>         0.0319
     14 C11        -4.7326   -3.0559   -1.2715 C.3       1 <0>        -0.1420
     15 C12        -4.0699   -4.4091   -0.9253 C.3       1 <0>         0.0141
     16 H3         -3.7913   -4.9381   -1.8367 H         1 <0>         0.1490
     17 C13        -2.8131   -4.0452   -0.1132 C.3       1 <0>         0.0131
     18 N2         -4.9809   -5.2311   -0.1177 N.4       1 <0>        -0.6312
     19 H4          1.0072    1.8976    0.1700 H         1 <0>         0.0592
     20 H5         -0.5598    1.9288   -0.6736 H         1 <0>         0.0553
     21 H6         -0.5071    1.8224    1.1024 H         1 <0>         0.0566
     22 H7         -1.9234   -0.2343    1.0212 H         1 <0>         0.0744
     23 H8         -1.9761   -0.1278   -0.7548 H         1 <0>         0.0627
     24 H9         -1.1401   -2.3348    2.1241 H         1 <0>         0.0738
     25 H10        -0.6347   -3.7249    1.1339 H         1 <0>         0.0580
     26 H11         1.7905   -0.2030    1.2729 H         1 <0>         0.0678
     27 H12         0.2762   -0.2781    2.2053 H         1 <0>         0.0659
     28 H13         0.9329   -2.1229   -0.9607 H         1 <0>         0.0570
     29 H14         2.4999   -2.1541   -0.1171 H         1 <0>         0.0603
     30 H15         1.4909   -3.6194   -0.1749 H         1 <0>         0.0520
     31 H16         1.5649   -3.7687    2.3180 H         1 <0>         0.0542
     32 H17         2.5739   -2.3035    2.3759 H         1 <0>         0.0603
     33 H18         1.0595   -2.3787    3.3083 H         1 <0>         0.0569
     34 H19        -3.9304   -1.0486   -0.9431 H         1 <0>         0.1057
     35 H20        -2.9460   -2.0627   -2.0475 H         1 <0>         0.0631
     36 H21        -5.5208   -2.8185   -0.5571 H         1 <0>         0.0990
     37 H22        -5.1232   -3.0670   -2.2891 H         1 <0>         0.1061
     38 H23        -1.9205   -4.3860   -0.6378 H         1 <0>         0.0838
     39 H24        -2.8639   -4.5031    0.8747 H         1 <0>         0.0988
     40 H25        -5.8187   -5.4230   -0.6463 H         1 <0>         0.4376
     41 H26        -4.5274   -6.1003    0.1210 H         1 <0>         0.4366
     42 H27        -5.2225   -4.7348    0.7269 H         1 <0>         0.4372
@<TRIPOS>BOND
     1    1    2 1
     2    1   19 1
     3    1   20 1
     4    1   21 1
     5    2    3 1
     6    2    9 1
     7    2    4 1
     8    4    5 1
     9    4   22 1
    10    4   23 1
    11    5    6 1
    12    5    7 1
    13    5   12 1
    14    7    8 1
    15    7   24 1
    16    7   25 1
    17    8    9 1
    18    8   10 1
    19    8   11 1
    20    9   26 1
    21    9   27 1
    22   10   28 1
    23   10   29 1
    24   10   30 1
    25   11   31 1
    26   11   32 1
    27   11   33 1
    28   12   17 1
    29   12   13 1
    30   13   14 1
    31   13   34 1
    32   13   35 1
    33   14   15 1
    34   14   36 1
    35   14   37 1
    36   15   16 1
    37   15   17 1
    38   15   18 1
    39   17   38 1
    40   17   39 1
    41   18   40 1
    42   18   41 1
    43   18   42 1
@<TRIPOS>MOLECULE
ZINC11630536
   33    34     0     0     0
SMALL
USER_CHARGES
(2R)-2-amino-1-tetralin-6-yl-propan-1-one
@<TRIPOS>ATOM
      1 C1          1.8981   -0.7777    1.4004 C.3       1 <0>        -0.1809
      2 C2          1.3172   -0.7397   -0.0145 C.3       1 <0>         0.0062
      3 H1          1.9548   -0.2686   -0.6240 H         1 <0>         0.1454
      4 C3          0.0021   -0.0041    0.0020 C.2       1 <0>         0.3939
      5 O1         -1.0396   -0.6246    0.0086 O.2       1 <0>        -0.4337
      6 C4         -0.0179    1.4674    0.0101 C.ar      1 <0>        -0.1941
      7 C5          1.1801    2.1895    0.0025 C.ar      1 <0>        -0.0789
      8 C6          1.1445    3.5646    0.0128 C.ar      1 <0>        -0.1278
      9 C7         -0.0686    4.2455    0.0313 C.ar      1 <0>        -0.0163
     10 C8         -1.2537    3.5406    0.0339 C.ar      1 <0>        -0.0819
     11 C9         -1.2321    2.1550    0.0196 C.ar      1 <0>        -0.0413
     12 C10        -2.5996    4.2176    0.0429 C.3       1 <0>        -0.0875
     13 C11        -2.4661    5.6725    0.4880 C.3       1 <0>        -0.1241
     14 C12        -1.3718    6.3373   -0.3554 C.3       1 <0>        -0.1244
     15 C13        -0.0230    5.7516    0.0566 C.3       1 <0>        -0.0956
     16 H2          2.8494   -1.3098    1.3885 H         1 <0>         0.1008
     17 H3          2.0558    0.2406    1.7559 H         1 <0>         0.1159
     18 H4          1.2030   -1.2909    2.0649 H         1 <0>         0.0909
     19 H5          2.1272    1.6706   -0.0109 H         1 <0>         0.1308
     20 H6          2.0693    4.1223    0.0067 H         1 <0>         0.1372
     21 H7         -2.1609    1.6038    0.0207 H         1 <0>         0.1379
     22 H8         -3.0244    4.1863   -0.9605 H         1 <0>         0.0839
     23 H9         -3.2622    3.6910    0.7296 H         1 <0>         0.0812
     24 H10        -3.4127    6.1912    0.3362 H         1 <0>         0.0766
     25 H11        -2.1917    5.7102    1.5422 H         1 <0>         0.0689
     26 H12        -1.5509    6.1383   -1.4120 H         1 <0>         0.0689
     27 H13        -1.3749    7.4129   -0.1788 H         1 <0>         0.0771
     28 H14         0.2215    6.0868    1.0646 H         1 <0>         0.0897
     29 H15         0.7457    6.0994   -0.6334 H         1 <0>         0.0860
     30 H16         1.9725   -2.6265   -0.5138 H         1 <0>         0.4451
     31 H17         0.4150   -2.5884    0.0682 H         1 <0>         0.4437
     32 N1          1.0961   -2.1072   -0.5169 N.4       1 <0>        -0.6384
     33 H18         0.7381   -2.0599   -1.4780 H         1 <0>         0.4447
@<TRIPOS>BOND
     1    1    2 1
     2    1   16 1
     3    1   17 1
     4    1   18 1
     5    2    3 1
     6    2    4 1
     7    2   32 1
     8    4    5 2
     9    4    6 1
    10    6   11 ar
    11    6    7 ar
    12    7    8 ar
    13    7   19 1
    14    8    9 ar
    15    8   20 1
    16    9   15 1
    17    9   10 ar
    18   10   11 ar
    19   10   12 1
    20   11   21 1
    21   12   13 1
    22   12   22 1
    23   12   23 1
    24   13   14 1
    25   13   24 1
    26   13   25 1
    27   14   15 1
    28   14   26 1
    29   14   27 1
    30   15   28 1
    31   15   29 1
    32   30   32 1
    33   31   32 1
    34   32   33 1
@<TRIPOS>MOLECULE
ZINC34975069
   33    34     0     0     0
SMALL
USER_CHARGES

@<TRIPOS>ATOM
      1 C1         -0.0184    1.5028    0.0103 C.3       1 <0>        -0.1219
      2 C2          0.0021   -0.0041    0.0020 C.ar      1 <0>        -0.0907
      3 C3          0.0056   -0.6834   -1.1964 C.ar      1 <0>        -0.0568
      4 C4          0.0246   -2.0771   -1.1977 C.ar      1 <0>        -0.1462
      5 C5          0.0340   -3.1021   -2.2484 C.2       1 <0>        -0.0793
      6 C6          0.0532   -4.2838   -1.6172 C.2       1 <0>        -0.0816
      7 O1          0.0567   -4.0979   -0.2856 O.3       1 <0>        -0.1979
      8 C7          0.0399   -2.7840    0.0166 C.ar      1 <0>         0.0754
      9 C8          0.0356   -2.0797    1.2136 C.ar      1 <0>        -0.1142
     10 C9          0.0229   -0.7012    1.2012 C.ar      1 <0>        -0.0312
     11 C10         0.0255    0.0563    2.5040 C.3       1 <0>        -0.1258
     12 C11         0.0680   -5.6268   -2.3007 C.3       1 <0>         0.1337
     13 H1          0.3269   -5.4968   -3.3515 H         1 <0>         0.1652
     14 C12        -1.3162   -6.2695   -2.1922 C.3       1 <0>        -0.1860
     15 N1          1.0625   -6.4940   -1.6550 N.4       1 <0>        -0.6373
     16 C13         0.0236   -2.8716   -3.7377 C.3       1 <0>        -0.1064
     17 H2          1.0042    1.8801    0.0026 H         1 <0>         0.0785
     18 H3         -0.5455    1.8639   -0.8728 H         1 <0>         0.0728
     19 H4         -0.5286    1.8543    0.9071 H         1 <0>         0.0769
     20 H5         -0.0065   -0.1394   -2.1293 H         1 <0>         0.1351
     21 H6          0.0469   -2.6115    2.1535 H         1 <0>         0.1383
     22 H7         -1.0014    0.2252    2.8280 H         1 <0>         0.0836
     23 H8          0.5544   -0.5236    3.2603 H         1 <0>         0.0753
     24 H9          0.5253    1.0150    2.3659 H         1 <0>         0.0809
     25 H10        -2.0542   -5.6260   -2.6714 H         1 <0>         0.1111
     26 H11        -1.3056   -7.2409   -2.6867 H         1 <0>         0.0944
     27 H12        -1.5752   -6.3995   -1.1414 H         1 <0>         0.0877
     28 H13         0.8228   -6.6143   -0.6823 H         1 <0>         0.4391
     29 H14         1.0723   -7.3932   -2.1127 H         1 <0>         0.4407
     30 H15         1.0487   -2.8020   -4.1017 H         1 <0>         0.0860
     31 H16        -0.4813   -3.7025   -4.2304 H         1 <0>         0.0753
     32 H17        -0.5040   -1.9437   -3.9580 H         1 <0>         0.0856
     33 H18         1.9753   -6.0702   -1.7266 H         1 <0>         0.4397
@<TRIPOS>BOND
     1    1    2 1
     2    1   17 1
     3    1   18 1
     4    1   19 1
     5    2   10 ar
     6    2    3 ar
     7    3    4 ar
     8    3   20 1
     9    4    8 ar
    10    4    5 1
    11    5    6 2
    12    5   16 1
    13    6    7 1
    14    6   12 1
    15    7    8 1
    16    8    9 ar
    17    9   10 ar
    18    9   21 1
    19   10   11 1
    20   11   22 1
    21   11   23 1
    22   11   24 1
    23   12   13 1
    24   12   14 1
    25   12   15 1
    26   14   25 1
    27   14   26 1
    28   14   27 1
    29   15   28 1
    30   15   29 1
    31   15   33 1
    32   16   30 1
    33   16   31 1
    34   16   32 1
@<TRIPOS>MOLECULE
ZINC38052835
   38    39     0     0     0
SMALL
USER_CHARGES

@<TRIPOS>ATOM
      1 C1         -4.7380   -1.3852    3.3428 C.3       1 <0>        -0.1185
      2 C2         -3.7196   -2.4494    3.0245 C.ar      1 <0>        -0.0861
      3 C3         -4.1352   -3.7294    2.7192 C.ar      1 <0>        -0.0730
      4 C4         -3.2004   -4.7051    2.4271 C.ar      1 <0>        -0.1130
      5 C5         -1.8544   -4.3977    2.4389 C.ar      1 <0>        -0.0813
      6 C6         -1.4299   -3.1131    2.7441 C.ar      1 <0>        -0.1827
      7 C7         -2.3637   -2.1365    3.0338 C.ar      1 <0>         0.1492
      8 O1         -1.9986   -0.8662    3.3426 O.3       1 <0>        -0.3134
      9 C8         -0.9921   -0.6860    4.3428 C.3       1 <0>         0.0528
     10 C9          0.3568   -0.5296    3.6314 C.3       1 <0>        -0.1492
     11 C10         0.3211   -1.3725    2.3494 C.3       1 <0>        -0.1426
     12 C11         0.0503   -2.8323    2.7362 C.3       1 <0>         0.0855
     13 H1          0.4590   -3.0350    3.7262 H         1 <0>         0.1442
     14 N1          0.7035   -3.7098    1.7558 N.4       1 <0>        -0.6674
     15 C12        -0.8400   -5.4650    2.1185 C.3       1 <0>        -0.0945
     16 C13         0.0863   -5.6653    3.3197 C.3       1 <0>        -0.2011
     17 C14        -1.5617   -6.7775    1.8067 C.3       1 <0>        -0.1559
     18 H2         -5.0342   -0.8793    2.4239 H         1 <0>         0.0806
     19 H3         -5.6128   -1.8452    3.8025 H         1 <0>         0.0749
     20 H4         -4.3037   -0.6613    4.0323 H         1 <0>         0.0771
     21 H5         -5.1884   -3.9685    2.7089 H         1 <0>         0.1432
     22 H6         -3.5230   -5.7082    2.1901 H         1 <0>         0.1436
     23 H7         -1.2077    0.2095    4.9257 H         1 <0>         0.1140
     24 H8         -0.9643   -1.5560    4.9989 H         1 <0>         0.0679
     25 H9          0.5202    0.5180    3.3786 H         1 <0>         0.0974
     26 H10         1.1583   -0.8814    4.2810 H         1 <0>         0.0875
     27 H11        -0.4719   -1.0096    1.6957 H         1 <0>         0.1073
     28 H12         1.2808   -1.2997    1.8377 H         1 <0>         0.0934
     29 H13         1.6503   -3.3965    1.6022 H         1 <0>         0.4230
     30 H14         0.7149   -4.6559    2.1063 H         1 <0>         0.4456
     31 H15        -0.2519   -5.1593    1.2532 H         1 <0>         0.0763
     32 H16         0.7192   -4.7862    3.4410 H         1 <0>         0.0601
     33 H17        -0.5117   -5.8094    4.2196 H         1 <0>         0.1027
     34 H18         0.7112   -6.5429    3.1543 H         1 <0>         0.0956
     35 H19        -2.2216   -6.6349    0.9509 H         1 <0>         0.0745
     36 H20        -0.8280   -7.5495    1.5749 H         1 <0>         0.0737
     37 H21        -2.1498   -7.0833    2.6720 H         1 <0>         0.0759
     38 H22         0.1939   -3.6797    0.8855 H         1 <0>         0.4329
@<TRIPOS>BOND
     1    1    2 1
     2    1   18 1
     3    1   19 1
     4    1   20 1
     5    2    7 ar
     6    2    3 ar
     7    3    4 ar
     8    3   21 1
     9    4    5 ar
    10    4   22 1
    11    5    6 ar
    12    5   15 1
    13    6   12 1
    14    6    7 ar
    15    7    8 1
    16    8    9 1
    17    9   10 1
    18    9   23 1
    19    9   24 1
    20   10   11 1
    21   10   25 1
    22   10   26 1
    23   11   12 1
    24   11   27 1
    25   11   28 1
    26   12   13 1
    27   12   14 1
    28   14   29 1
    29   14   30 1
    30   14   38 1
    31   15   16 1
    32   15   17 1
    33   15   31 1
    34   16   32 1
    35   16   33 1
    36   16   34 1
    37   17   35 1
    38   17   36 1
    39   17   37 1
@<TRIPOS>MOLECULE
ZINC43470578
   30    31     0     0     0
SMALL
USER_CHARGES

@<TRIPOS>ATOM
      1 C1         -0.0167    1.3769    0.0096 C.ar      1 <0>        -0.1072
      2 C2          1.1703    2.0866    0.0021 C.ar      1 <0>        -0.0979
      3 C3          2.3799    1.4169   -0.0135 C.ar      1 <0>        -0.1039
      4 C4          2.4062    0.0351   -0.0216 C.ar      1 <0>        -0.0393
      5 C5          1.2148   -0.6807   -0.0136 C.ar      1 <0>         0.1560
      6 C6          0.0021   -0.0041    0.0020 C.ar      1 <0>        -0.1118
      7 N1          1.2372   -2.0780   -0.0222 N.pl3     1 <0>        -0.6569
      8 C7          1.2561   -2.8341    1.2375 C.3       1 <0>         0.1338
      9 C8          0.1045   -3.8443    1.2234 C.3       1 <0>        -0.1330
     10 C9          0.2082   -4.7126   -0.0325 C.3       1 <0>        -0.1381
     11 C10         0.0909   -3.8292   -1.2766 C.3       1 <0>         0.0039
     12 H1         -0.8601   -3.2968   -1.2564 H         1 <0>         0.1424
     13 C11         1.2361   -2.8189   -1.2909 C.3       1 <0>         0.1276
     14 N2          0.1581   -4.6673   -2.4812 N.4       1 <0>        -0.6337
     15 Cl1         3.9251   -0.8053   -0.0422 Cl        1 <0>        -0.0582
     16 H2         -0.9595    1.9034    0.0259 H         1 <0>         0.1347
     17 H3          1.1524    3.1664    0.0080 H         1 <0>         0.1384
     18 H4          3.3050    1.9742   -0.0197 H         1 <0>         0.1392
     19 H5         -0.9255   -0.5573    0.0082 H         1 <0>         0.1293
     20 H6          2.2047   -3.3627    1.3322 H         1 <0>         0.0649
     21 H7          1.1315   -2.1496    2.0765 H         1 <0>         0.0862
     22 H8          0.1647   -4.4769    2.1091 H         1 <0>         0.0942
     23 H9         -0.8465   -3.3118    1.2201 H         1 <0>         0.0773
     24 H10         1.1698   -5.2258   -0.0409 H         1 <0>         0.0885
     25 H11        -0.5959   -5.4486   -0.0326 H         1 <0>         0.0881
     26 H12         1.0983   -2.1243   -2.1196 H         1 <0>         0.0930
     27 H13         2.1830   -3.3462   -1.4070 H         1 <0>         0.0744
     28 H14        -0.5991   -5.3340   -2.4698 H         1 <0>         0.4377
     29 H15         0.0807   -4.0844   -3.3012 H         1 <0>         0.4367
     30 H16         1.0390   -5.1591   -2.5001 H         1 <0>         0.4339
@<TRIPOS>BOND
     1    1    6 ar
     2    1    2 ar
     3    1   16 1
     4    2    3 ar
     5    2   17 1
     6    3    4 ar
     7    3   18 1
     8    4    5 ar
     9    4   15 1
    10    5    6 ar
    11    5    7 1
    12    6   19 1
    13    7   13 1
    14    7    8 1
    15    8    9 1
    16    8   20 1
    17    8   21 1
    18    9   10 1
    19    9   22 1
    20    9   23 1
    21   10   11 1
    22   10   24 1
    23   10   25 1
    24   11   12 1
    25   11   13 1
    26   11   14 1
    27   13   26 1
    28   13   27 1
    29   14   28 1
    30   14   29 1
    31   14   30 1
@<TRIPOS>MOLECULE
ZINC50328183
   34    35     0     0     0
SMALL
USER_CHARGES

@<TRIPOS>ATOM
      1 C1         -0.0167    1.3823    0.0096 C.ar      1 <0>        -0.1428
      2 C2          1.1808    2.0721    0.0019 C.ar      1 <0>         0.1233
      3 N1          2.3308    1.4269   -0.0130 N.ar      1 <0>        -0.4625
      4 C3          2.3867    0.1094   -0.0206 C.ar      1 <0>         0.1233
      5 C4          1.2303   -0.6473   -0.0132 C.ar      1 <0>        -0.1800
      6 C5          0.0021   -0.0041    0.0020 C.ar      1 <0>        -0.0892
      7 C6         -1.2819   -0.7930    0.0105 C.3       1 <0>         0.1334
      8 H1         -2.1004   -0.1586   -0.3294 H         1 <0>         0.1539
      9 C7         -1.5668   -1.2737    1.4101 C.2       1 <0>        -0.2029
     10 C8         -2.6122   -0.8398    2.0398 C.2       1 <0>        -0.0573
     11 C9         -2.9107   -1.3153    3.4456 C.3       1 <0>        -0.1064
     12 C10        -3.3780   -2.7710    3.3801 C.3       1 <0>        -0.1138
     13 C11        -2.1911   -3.7180    3.3890 C.3       1 <0>        -0.1282
     14 C12        -1.3262   -3.6218    2.1447 C.3       1 <0>        -0.1181
     15 C13        -0.6331   -2.2658    2.0700 C.3       1 <0>        -0.0928
     16 N2         -1.1525   -1.9485   -0.8873 N.4       1 <0>        -0.6346
     17 H2         -0.9553    1.9163    0.0259 H         1 <0>         0.1475
     18 H3          1.1748    3.1521    0.0078 H         1 <0>         0.1711
     19 H4          3.3473   -0.3840   -0.0331 H         1 <0>         0.1688
     20 H5          1.2825   -1.7260   -0.0195 H         1 <0>         0.1346
     21 H6         -3.2747   -0.1352    1.5592 H         1 <0>         0.1230
     22 H7         -2.0088   -1.2476    4.0539 H         1 <0>         0.0853
     23 H8         -3.6963   -0.6981    3.8815 H         1 <0>         0.0833
     24 H9         -4.0128   -2.9831    4.2404 H         1 <0>         0.0772
     25 H10        -3.9515   -2.9230    2.4657 H         1 <0>         0.0642
     26 H11        -1.5746   -3.4961    4.2601 H         1 <0>         0.0675
     27 H12        -2.5609   -4.7395    3.4784 H         1 <0>         0.0694
     28 H13        -0.5731   -4.4095    2.1693 H         1 <0>         0.0764
     29 H14        -1.9519   -3.7521    1.2617 H         1 <0>         0.0548
     30 H15         0.2795   -2.3569    1.4810 H         1 <0>         0.0677
     31 H16        -0.3896   -1.9254    3.0764 H         1 <0>         0.0935
     32 H17        -2.0122   -2.4768   -0.8816 H         1 <0>         0.4403
     33 H18        -0.9617   -1.6267   -1.8243 H         1 <0>         0.4388
     34 H19        -0.3948   -2.5358   -0.5726 H         1 <0>         0.4310
@<TRIPOS>BOND
     1    1    6 ar
     2    1    2 ar
     3    1   17 1
     4    2    3 ar
     5    2   18 1
     6    3    4 ar
     7    4    5 ar
     8    4   19 1
     9    5    6 ar
    10    5   20 1
    11    6    7 1
    12    7    8 1
    13    7    9 1
    14    7   16 1
    15    9   15 1
    16    9   10 2
    17   10   11 1
    18   10   21 1
    19   11   12 1
    20   11   22 1
    21   11   23 1
    22   12   13 1
    23   12   24 1
    24   12   25 1
    25   13   14 1
    26   13   26 1
    27   13   27 1
    28   14   15 1
    29   14   28 1
    30   14   29 1
    31   15   30 1
    32   15   31 1
    33   16   32 1
    34   16   33 1
    35   16   34 1
@<TRIPOS>MOLECULE
ZINC12362907
   20    20     0     0     0
SMALL
USER_CHARGES
(3S,5R)-5-(hydroxymethyl)pyrrolidin-3-ol
@<TRIPOS>ATOM
      1 C1          2.1001    0.8478    0.9366 C.3       1 <0>        -0.1436
      2 C2          1.1693   -0.3824    0.9388 C.3       1 <0>         0.0886
      3 H1          0.7991   -0.5771    1.9454 H         1 <0>         0.0994
      4 C3          0.0021   -0.0041    0.0020 C.3       1 <0>        -0.0468
      5 C4          1.4169    1.8659   -0.0014 C.3       1 <0>         0.0341
      6 H2          1.8236    1.7864   -1.0096 H         1 <0>         0.1509
      7 C5          1.5926    3.2877    0.5356 C.3       1 <0>         0.0571
      8 O1          0.9863    4.2159   -0.3661 O.3       1 <0>        -0.5793
      9 O2          1.8593   -1.5277    0.4345 O.3       1 <0>        -0.5421
     10 H3          2.1869    1.2587    1.9424 H         1 <0>         0.1129
     11 H4          3.0832    0.5780    0.5508 H         1 <0>         0.1280
     12 H5         -0.9379   -0.3991    0.3872 H         1 <0>         0.1455
     13 H6          0.1874   -0.3762   -1.0056 H         1 <0>         0.1422
     14 H7          1.1177    3.3681    1.5134 H         1 <0>         0.0742
     15 H8          2.6552    3.5124    0.6282 H         1 <0>         0.0976
     16 H9          1.0596    5.1392   -0.0883 H         1 <0>         0.4107
     17 H10         1.3102   -2.3212    0.3709 H         1 <0>         0.3991
     18 N1          0.0110    1.4594    0.0098 N.4       1 <0>        -0.5042
     19 H11        -0.4537    1.8125    0.8545 H         1 <0>         0.4330
     20 H12        -0.4697    1.8216   -0.8221 H         1 <0>         0.4427
@<TRIPOS>BOND
     1    1    5 1
     2    1    2 1
     3    1   10 1
     4    1   11 1
     5    2    3 1
     6    2    4 1
     7    2    9 1
     8    4   12 1
     9    4   13 1
    10    4   18 1
    11    5    6 1
    12    5    7 1
    13    5   18 1
    14    7    8 1
    15    7   14 1
    16    7   15 1
    17    8   16 1
    18    9   17 1
    19   18   19 1
    20   18   20 1
@<TRIPOS>MOLECULE
ZINC19475821
   21    21     0     0     0
SMALL
USER_CHARGES
1-piperazin-1-ylprop-2-yn-1-one
@<TRIPOS>ATOM
      1 C1         -1.3045    3.0316    4.3124 C.1       1 <0>        -0.0543
      2 C2         -0.7335    2.6565    3.3577 C.1       1 <0>        -0.2699
      3 C3         -0.0370    2.1989    2.1932 C.2       1 <0>         0.6452
      4 O1          1.1606    2.3833    2.0893 O.2       1 <0>        -0.4920
      5 N1         -0.7086    1.5639    1.2123 N.am      1 <0>        -0.6287
      6 C4         -0.0127    1.0858    0.0080 C.3       1 <0>         0.0841
      7 C5         -0.7616    1.5973   -1.2272 C.3       1 <0>        -0.0143
      8 N2         -2.1749    1.2075   -1.1353 N.4       1 <0>        -0.5357
      9 C6         -2.8257    1.8324    0.0239 C.3       1 <0>        -0.0174
     10 C7         -2.1615    1.3306    1.3104 C.3       1 <0>         0.0810
     11 H1         -1.8395    3.3831    5.2069 H         1 <0>         0.2571
     12 H2          1.0188    1.4679    0.0046 H         1 <0>         0.1385
     13 H3          0.0037   -0.0141    0.0063 H         1 <0>         0.1003
     14 H4         -0.6847    2.6936   -1.2747 H         1 <0>         0.1329
     15 H5         -0.3173    1.1590   -2.1330 H         1 <0>         0.1495
     16 H6         -2.7028    1.5250   -2.0466 H         1 <0>         0.4596
     17 H7         -2.7210    2.9254   -0.0420 H         1 <0>         0.1325
     18 H8         -3.8930    1.5662    0.0329 H         1 <0>         0.1491
     19 H9         -2.3525    0.2545    1.4351 H         1 <0>         0.1017
     20 H10        -2.5630    1.8770    2.1766 H         1 <0>         0.1289
     21 H11        -2.2479    0.1149   -1.0311 H         1 <0>         0.4519
@<TRIPOS>BOND
     1    1    2 3
     2    1   11 1
     3    2    3 1
     4    3    4 2
     5    3    5 am
     6    5   10 1
     7    5    6 1
     8    6    7 1
     9    6   12 1
    10    6   13 1
    11    7    8 1
    12    7   14 1
    13    7   15 1
    14    8    9 1
    15    8   16 1
    16    8   21 1
    17    9   10 1
    18    9   17 1
    19    9   18 1
    20   10   19 1
    21   10   20 1
@<TRIPOS>MOLECULE
ZINC38534195
   18    18     0     0     0
SMALL
USER_CHARGES

@<TRIPOS>ATOM
      1 C1         -0.0185    1.5111    0.0104 C.3       1 <0>        -0.2105
      2 C2          1.3278    2.2091    0.0012 C.2       1 <0>         0.0359
      3 C3          2.4234    1.4347   -0.0134 C.2       1 <0>        -0.2750
      4 C4          2.3209    0.0307   -0.0204 C.2       1 <0>         0.2699
      5 N1          1.1904   -0.6215   -0.0131 N.2       1 <0>        -0.5453
      6 C5          0.0021   -0.0041    0.0020 C.2       1 <0>         0.4932
      7 O1         -1.0315   -0.6415    0.0085 O.2       1 <0>        -0.4127
      8 C6          3.7860    2.0784   -0.0229 C.3       1 <0>         0.0518
      9 N2          4.2935    2.1710    1.3525 N.4       1 <0>        -0.6389
     10 H1         -0.5608    1.8361    0.8983 H         1 <0>         0.1445
     11 H2         -0.5776    1.8456   -0.8635 H         1 <0>         0.1460
     12 H3          1.4018    3.2865    0.0060 H         1 <0>         0.1639
     13 H4          3.2357   -0.5432   -0.0329 H         1 <0>         0.1690
     14 H5          4.4684    1.4756   -0.6222 H         1 <0>         0.1495
     15 H6          3.7126    3.0780   -0.4512 H         1 <0>         0.1448
     16 H7          3.6618    2.7290    1.9072 H         1 <0>         0.4347
     17 H8          4.3614    1.2456    1.7490 H         1 <0>         0.4370
     18 H9          5.2058    2.6020    1.3461 H         1 <0>         0.4424
@<TRIPOS>BOND
     1    1    6 1
     2    1    2 1
     3    1   10 1
     4    1   11 1
     5    2    3 2
     6    2   12 1
     7    3    4 1
     8    3    8 1
     9    4    5 2
    10    4   13 1
    11    5    6 1
    12    6    7 2
    13    8    9 1
    14    8   14 1
    15    8   15 1
    16    9   16 1
    17    9   17 1
    18    9   18 1
@<TRIPOS>MOLECULE
ZINC39134747
   18    18     0     0     0
SMALL
USER_CHARGES

@<TRIPOS>ATOM
      1 C1         -0.0221    1.7814    0.0118 C.2       1 <0>        -0.2108
      2 C2          1.3087    2.0497    0.0006 C.2       1 <0>        -0.0028
      3 N1          2.1264    1.0160   -0.0128 N.2       1 <0>        -0.5212
      4 C3          1.6722   -0.2124   -0.0150 C.2       1 <0>         0.0368
      5 S1          0.0021   -0.0041    0.0020 S.3       1 <0>         0.1741
      6 C4          1.8272    3.4647    0.0027 C.3       1 <0>         0.1701
      7 H1          2.3512    3.6611   -0.9327 H         1 <0>         0.1389
      8 C5          2.7907    3.6530    1.1762 C.3       1 <0>        -0.0351
      9 N2          3.2962    5.0322    1.1783 N.4       1 <0>        -0.6325
     10 O1          0.7321    4.3731    0.1351 O.3       1 <0>        -0.5454
     11 H2         -0.8624    2.4597    0.0273 H         1 <0>         0.2042
     12 H3          2.2332   -1.1352   -0.0259 H         1 <0>         0.2272
     13 H4          2.2668    3.4566    2.1117 H         1 <0>         0.1365
     14 H5          3.6260    2.9600    1.0753 H         1 <0>         0.1526
     15 H6          3.7813    5.2140    0.3124 H         1 <0>         0.4375
     16 H7          2.5230    5.6737    1.2718 H         1 <0>         0.4377
     17 H8          0.2197    4.2558    0.9467 H         1 <0>         0.3921
     18 H9          3.9316    5.1564    1.9522 H         1 <0>         0.4402
@<TRIPOS>BOND
     1    1    5 1
     2    1    2 2
     3    1   11 1
     4    2    3 1
     5    2    6 1
     6    3    4 2
     7    4    5 1
     8    4   12 1
     9    6    7 1
    10    6    8 1
    11    6   10 1
    12    8    9 1
    13    8   13 1
    14    8   14 1
    15    9   15 1
    16    9   16 1
    17    9   18 1
    18   10   17 1
@<TRIPOS>MOLECULE
ZINC54930156
   23    22     0     0     0
SMALL
USER_CHARGES

@<TRIPOS>ATOM
      1 C1         -0.0187    1.5258    0.0104 C.3       1 <0>        -0.2207
      2 C2          0.0021   -0.0041    0.0020 C.3       1 <0>         0.0505
      3 H1         -1.0205   -0.3814    0.0098 H         1 <0>         0.1655
      4 C3          0.7182   -0.4975   -1.2568 C.3       1 <0>        -0.6170
      5 H2          0.1910   -0.1364   -2.1398 H         1 <0>         0.1853
      6 C4          0.7390   -2.0273   -1.2652 C.3       1 <0>        -0.1683
      7 S1          2.4200    0.1304   -1.2697 S.o2      1 <0>         2.3947
      8 O1          2.3760    1.5459   -1.3868 O.2       1 <0>        -0.9067
      9 O2          3.1220   -0.4513   -0.1796 O.2       1 <0>        -0.9408
     10 C5          3.0875   -0.5526   -2.8120 C.3       1 <0>        -0.6360
     11 N1          0.7126   -0.4907    1.1921 N.4       1 <0>        -0.6496
     12 H3          1.0039    1.9031    0.0027 H         1 <0>         0.1032
     13 H4         -0.5459    1.8868   -0.8726 H         1 <0>         0.1208
     14 H5         -0.5289    1.8773    0.9072 H         1 <0>         0.0999
     15 H6         -0.2836   -2.4046   -1.2575 H         1 <0>         0.1009
     16 H7          1.2492   -2.3788   -2.1620 H         1 <0>         0.0989
     17 H8          1.2661   -2.3884   -0.3821 H         1 <0>         0.0751
     18 H9          2.4988   -0.1901   -3.6546 H         1 <0>         0.1418
     19 H10         4.1241   -0.2370   -2.9304 H         1 <0>         0.1475
     20 H11         3.0407   -1.6410   -2.7775 H         1 <0>         0.1392
     21 H12         0.2403   -0.1653    2.0223 H         1 <0>         0.4452
     22 H13         0.7262   -1.4996    1.1866 H         1 <0>         0.4391
     23 H14         1.6592   -0.1415    1.1850 H         1 <0>         0.4315
@<TRIPOS>BOND
     1    1    2 1
     2    1   12 1
     3    1   13 1
     4    1   14 1
     5    2    3 1
     6    2    4 1
     7    2   11 1
     8    4    5 1
     9    4    6 1
    10    4    7 1
    11    6   15 1
    12    6   16 1
    13    6   17 1
    14    7    8 2
    15    7    9 2
    16    7   10 1
    17   10   18 1
    18   10   19 1
    19   10   20 1
    20   11   21 1
    21   11   22 1
    22   11   23 1
@<TRIPOS>MOLECULE
ZINC08817599
   66    70     0     0     0
SMALL
USER_CHARGES
N-(9-cyano-3,3,5,5-tetramethyl-7-thia-4-azabicyclo[4.3.0]nona-8,10-dien-8-yl)-2-(1,3-dioxoisoindolin-2-yl)-3-phenyl-propanamide
@<TRIPOS>ATOM
      1 C1         -4.3395   -3.8984    2.1930 C.3       1 <0>        -0.1710
      2 C2         -4.5096   -4.1627    0.6943 C.3       1 <0>         0.0647
      3 C3         -3.1478   -4.0482    0.0015 C.3       1 <0>        -0.0700
      4 C4         -2.7353   -2.5826    0.0093 C.2       1 <0>        -0.0300
      5 C5         -1.3731   -2.0913    0.0039 C.2       1 <0>        -0.1265
      6 C6         -1.1905   -0.7144    0.0096 C.2       1 <0>         0.1142
      7 S1         -2.8107   -0.0995    0.0290 S.3       1 <0>         0.3531
      8 C7         -3.6969   -1.6306    0.0200 C.2       1 <0>        -0.2895
      9 C8         -5.1746   -1.8545    0.0153 C.3       1 <0>         0.1682
     10 C9         -5.8136   -1.0738    1.1715 C.3       1 <0>        -0.1773
     11 C10        -5.7438   -1.2995   -1.3042 C.3       1 <0>        -0.1803
     12 N1          0.0021   -0.0041    0.0020 N.am      1 <0>        -0.6138
     13 C11        -0.0162    1.3436    0.0094 C.2       1 <0>         0.5110
     14 O1         -1.0747    1.9356    0.0177 O.2       1 <0>        -0.4669
     15 C12         1.2785    2.1147    0.0012 C.3       1 <0>         0.1409
     16 H1          1.8451    1.8640   -0.8956 H         1 <0>         0.1483
     17 C13         2.0976    1.7494    1.2407 C.3       1 <0>        -0.0926
     18 C14         3.4427    2.4254    1.1712 C.ar      1 <0>        -0.0989
     19 C15         4.5085    1.7835    0.5687 C.ar      1 <0>        -0.1096
     20 C16         5.7411    2.4056    0.5006 C.ar      1 <0>        -0.1127
     21 C17         5.9106    3.6652    1.0443 C.ar      1 <0>        -0.1092
     22 C18         4.8461    4.3049    1.6514 C.ar      1 <0>        -0.1131
     23 C19         3.6122    3.6850    1.7148 C.ar      1 <0>        -0.1088
     24 N2          0.9913    3.5513    0.0117 N.am      1 <0>        -0.5627
     25 C20         0.3025    4.1828    0.9793 C.2       1 <0>         0.5845
     26 O2         -0.1724    3.6605    1.9676 O.2       1 <0>        -0.4521
     27 C21         0.2225    5.6192    0.6398 C.ar      1 <0>        -0.1403
     28 C22        -0.3461    6.7271    1.2475 C.ar      1 <0>        -0.0419
     29 C23        -0.2420    7.9708    0.6444 C.ar      1 <0>        -0.0909
     30 C24         0.4247    8.1128   -0.5581 C.ar      1 <0>        -0.0907
     31 C25         0.9990    7.0136   -1.1773 C.ar      1 <0>        -0.0404
     32 C26         0.9023    5.7640   -0.5864 C.ar      1 <0>        -0.1398
     33 C27         1.3767    4.4116   -0.9480 C.2       1 <0>         0.5809
     34 O3          2.0084    4.1250   -1.9449 O.2       1 <0>        -0.4532
     35 C28        -0.2512   -2.9812   -0.0082 C.1       1 <0>         0.2482
     36 N3          0.6388   -3.6871   -0.0178 N.1       1 <0>        -0.3901
     37 C29        -5.0007   -5.6144    0.5270 C.3       1 <0>        -0.1826
     38 H2         -5.2909   -4.0582    2.7004 H         1 <0>         0.0838
     39 H3         -3.5920   -4.5797    2.5996 H         1 <0>         0.1047
     40 H4         -4.0145   -2.8693    2.3459 H         1 <0>         0.0837
     41 H5         -3.2262   -4.4052   -1.0255 H         1 <0>         0.1101
     42 H6         -2.4160   -4.6477    0.5433 H         1 <0>         0.1211
     43 H7         -5.6067   -0.0106    1.0501 H         1 <0>         0.1070
     44 H8         -6.8913   -1.2370    1.1682 H         1 <0>         0.0915
     45 H9         -5.3967   -1.4194    2.1174 H         1 <0>         0.0882
     46 H10        -5.2844   -1.8190   -2.1451 H         1 <0>         0.0869
     47 H11        -6.8227   -1.4532   -1.3277 H         1 <0>         0.0907
     48 H12        -5.5272   -0.2335   -1.3734 H         1 <0>         0.1073
     49 H13         0.8486   -0.4776   -0.0086 H         1 <0>         0.4298
     50 H14         1.5703    2.0807    2.1353 H         1 <0>         0.1032
     51 H15         2.2356    0.6688    1.2795 H         1 <0>         0.0971
     52 H16         4.3772    0.7976    0.1479 H         1 <0>         0.1232
     53 H17         6.5728    1.9056    0.0266 H         1 <0>         0.1274
     54 H18         6.8747    4.1493    0.9950 H         1 <0>         0.1271
     55 H19         4.9786    5.2888    2.0765 H         1 <0>         0.1259
     56 H20         2.7806    4.1846    2.1895 H         1 <0>         0.1143
     57 H21        -0.8679    6.6221    2.1872 H         1 <0>         0.1438
     58 H22        -0.6845    8.8349    1.1175 H         1 <0>         0.1463
     59 H23         0.4995    9.0871   -1.0180 H         1 <0>         0.1466
     60 H24         1.5193    7.1306   -2.1164 H         1 <0>         0.1446
     61 H25        -5.1236   -5.8365   -0.5331 H         1 <0>         0.0831
     62 H26        -4.2693   -6.2975    0.9588 H         1 <0>         0.1074
     63 H27        -5.9565   -5.7357    1.0368 H         1 <0>         0.0860
     64 N4         -5.5533   -3.2945    0.0921 N.4       1 <0>        -0.5081
     65 H28        -6.4058   -3.3743    0.6587 H         1 <0>         0.4359
     66 H29        -5.7422   -3.6298   -0.8598 H         1 <0>         0.4325
@<TRIPOS>BOND
     1    1    2 1
     2    1   38 1
     3    1   39 1
     4    1   40 1
     5    2    3 1
     6    2   37 1
     7    2   64 1
     8    3    4 1
     9    3   41 1
    10    3   42 1
    11    4    8 2
    12    4    5 1
    13    5    6 2
    14    5   35 1
    15    6    7 1
    16    6   12 1
    17    7    8 1
    18    8    9 1
    19    9   10 1
    20    9   11 1
    21    9   64 1
    22   10   43 1
    23   10   44 1
    24   10   45 1
    25   11   46 1
    26   11   47 1
    27   11   48 1
    28   12   13 am
    29   12   49 1
    30   13   14 2
    31   13   15 1
    32   15   16 1
    33   15   17 1
    34   15   24 1
    35   17   18 1
    36   17   50 1
    37   17   51 1
    38   18   23 ar
    39   18   19 ar
    40   19   20 ar
    41   19   52 1
    42   20   21 ar
    43   20   53 1
    44   21   22 ar
    45   21   54 1
    46   22   23 ar
    47   22   55 1
    48   23   56 1
    49   24   33 am
    50   24   25 am
    51   25   26 2
    52   25   27 1
    53   27   32 ar
    54   27   28 ar
    55   28   29 ar
    56   28   57 1
    57   29   30 ar
    58   29   58 1
    59   30   31 ar
    60   30   59 1
    61   31   32 ar
    62   31   60 1
    63   32   33 1
    64   33   34 2
    65   35   36 3
    66   37   61 1
    67   37   62 1
    68   37   63 1
    69   64   65 1
    70   64   66 1
@<TRIPOS>MOLECULE
ZINC20763862
   49    53     0     0     0
SMALL
USER_CHARGES
2-[(2S,4R)-6-(1,3-benzodioxol-5-yl)-2-(2,4-dichlorophenyl)-2,3,4,5-tetrahydropyrimidin-4-yl]-4-chloro-phenol
@<TRIPOS>ATOM
      1 C1         -0.6583    5.9011   -1.0540 C.ar      1 <0>        -0.0667
      2 C2         -0.5507    7.2734   -1.1273 C.ar      1 <0>        -0.1077
      3 C3          0.6350    7.9011   -0.7721 C.ar      1 <0>         0.0756
      4 C4          1.7227    7.1445   -0.3338 C.ar      1 <0>         0.0262
      5 C5          1.6195    5.7696   -0.2533 C.ar      1 <0>        -0.0483
      6 C6          0.4249    5.1384   -0.6112 C.ar      1 <0>        -0.0888
      7 C7          0.3104    3.6708   -0.5273 C.2       1 <0>         0.2741
      8 N1          1.3246    3.0018   -0.1223 N.2       1 <0>        -0.5134
      9 C8          1.3514    1.5494   -0.0025 C.3       1 <0>         0.2645
     10 H1          1.8739    1.1513   -0.8848 H         1 <0>         0.1638
     11 N2         -0.0116    1.0048    0.0076 N.4       1 <0>        -0.5719
     12 C9         -0.7772    1.5287   -1.1367 C.3       1 <0>         0.1091
     13 H2         -0.2129    1.3263   -2.0590 H         1 <0>         0.1545
     14 C10        -0.9912    3.0302   -0.9217 C.3       1 <0>        -0.1523
     15 C11        -2.1107    0.8315   -1.2182 C.ar      1 <0>        -0.1748
     16 C12        -2.6710    0.2764   -0.0838 C.ar      1 <0>        -0.0811
     17 C13        -3.8952   -0.3638   -0.1581 C.ar      1 <0>        -0.0654
     18 C14        -4.5608   -0.4495   -1.3684 C.ar      1 <0>        -0.0419
     19 C15        -4.0037    0.1038   -2.5047 C.ar      1 <0>        -0.1847
     20 C16        -2.7790    0.7516   -2.4309 C.ar      1 <0>         0.2029
     21 O1         -2.2320    1.3020   -3.5469 O.3       1 <0>        -0.5065
     22 Cl1        -4.5975   -1.0600    1.2687 Cl        1 <0>        -0.0420
     23 C17         2.0469    1.1706    1.2796 C.ar      1 <0>        -0.1244
     24 C18         1.6379    0.0534    1.9836 C.ar      1 <0>        -0.1023
     25 C19         2.2789   -0.2978    3.1565 C.ar      1 <0>        -0.0948
     26 C20         3.3233    0.4751    3.6328 C.ar      1 <0>        -0.0017
     27 C21         3.7292    1.5962    2.9318 C.ar      1 <0>        -0.0975
     28 C22         3.0908    1.9441    1.7547 C.ar      1 <0>         0.0225
     29 Cl2         3.6000    3.3507    0.8739 Cl        1 <0>        -0.0025
     30 Cl3         4.1234    0.0381    5.1101 Cl        1 <0>        -0.0264
     31 O2          2.7556    7.9911   -0.0498 O.3       1 <0>        -0.3045
     32 C23         2.1597    9.2960    0.0731 C.3       1 <0>         0.2065
     33 O3          0.9893    9.2184   -0.7616 O.3       1 <0>        -0.2954
     34 H3         -1.5813    5.4160   -1.3354 H         1 <0>         0.1463
     35 H4         -1.3905    7.8617   -1.4663 H         1 <0>         0.1488
     36 H5          2.4608    5.1831    0.0853 H         1 <0>         0.1467
     37 H6          0.0314   -0.0923   -0.0600 H         1 <0>         0.4555
     38 H7         -1.7323    3.1843   -0.1236 H         1 <0>         0.1273
     39 H8         -1.3564    3.4856   -1.8540 H         1 <0>         0.1459
     40 H9         -2.1529    0.3419    0.8615 H         1 <0>         0.1316
     41 H10        -5.5164   -0.9497   -1.4245 H         1 <0>         0.1492
     42 H11        -4.5235    0.0367   -3.4490 H         1 <0>         0.1516
     43 H12        -2.7626    1.2382   -4.5083 H         1 <0>         0.4601
     44 H13         0.8200   -0.5477    1.6146 H         1 <0>         0.1353
     45 H14         1.9619   -1.1733    3.7038 H         1 <0>         0.1539
     46 H15         4.5440    2.1999    3.3033 H         1 <0>         0.1576
     47 H16         1.9077    9.4862    1.1268 H         1 <0>         0.0950
     48 H17         2.8710   10.0584   -0.2772 H         1 <0>         0.1433
     49 H18        -0.5156    1.2952    0.9412 H         1 <0>         0.4471
@<TRIPOS>BOND
     1    1    6 ar
     2    1    2 ar
     3    1   34 1
     4    2    3 ar
     5    2   35 1
     6    3   33 1
     7    3    4 ar
     8    4    5 ar
     9    4   31 1
    10    5    6 ar
    11    5   36 1
    12    6    7 1
    13    7   14 1
    14    7    8 2
    15    8    9 1
    16    9   10 1
    17    9   11 1
    18    9   23 1
    19   11   12 1
    20   11   37 1
    21   11   49 1
    22   12   13 1
    23   12   14 1
    24   12   15 1
    25   14   38 1
    26   14   39 1
    27   15   20 ar
    28   15   16 ar
    29   16   17 ar
    30   16   40 1
    31   17   18 ar
    32   17   22 1
    33   18   19 ar
    34   18   41 1
    35   19   20 ar
    36   19   42 1
    37   20   21 1
    38   21   43 1
    39   23   28 ar
    40   23   24 ar
    41   24   25 ar
    42   24   44 1
    43   25   26 ar
    44   25   45 1
    45   26   27 ar
    46   26   30 1
    47   27   28 ar
    48   27   46 1
    49   28   29 1
    50   31   32 1
    51   32   33 1
    52   32   47 1
    53   32   48 1
@<TRIPOS>MOLECULE
ZINC03011868
   48    51     0     0     0
SMALL
USER_CHARGES

@<TRIPOS>ATOM
      1 C1          0.0038    1.5030    0.0096 C.3       1 <0>        -0.1194
      2 C2          0.0185   -0.0039    0.0013 C.ar      1 <0>        -0.0890
      3 C3         -0.7248   -0.6961   -0.9371 C.ar      1 <0>        -0.0881
      4 C4         -0.7136   -2.0769   -0.9474 C.ar      1 <0>        -0.1330
      5 C5          0.0454   -2.7715   -0.0140 C.ar      1 <0>         0.1528
      6 C6          0.7911   -2.0745    0.9274 C.ar      1 <0>        -0.1092
      7 C7          0.7803   -0.6921    0.9292 C.ar      1 <0>        -0.0177
      8 Cl1         1.7180    0.1810    2.1006 Cl        1 <0>        -0.0604
      9 N1          0.0581   -4.1699   -0.0221 N.am      1 <0>        -0.6584
     10 C8          0.1745   -4.8495    1.1360 C.2       1 <0>         0.6040
     11 O1          0.1720   -4.2515    2.1946 O.2       1 <0>        -0.4963
     12 C9          0.3052   -6.3205    1.1190 C.2       1 <0>         0.0654
     13 C10         0.4287   -7.1553    2.2529 C.2       1 <0>        -0.2614
     14 C11         0.5226   -8.4261    1.8144 C.2       1 <0>         0.3658
     15 N2          0.4642   -8.4108    0.4496 N.pl3     1 <0>        -0.3936
     16 N3          0.3213   -7.0853    0.0413 N.2       1 <0>        -0.2489
     17 C12         0.5406   -9.6159   -0.3810 C.3       1 <0>         0.1261
     18 H1         -0.4612   -9.9034   -0.7002 H         1 <0>         0.1356
     19 C13         1.1614  -10.7487    0.4442 C.3       1 <0>        -0.1497
     20 C14         0.4459  -10.8632    1.7948 C.3       1 <0>         0.1986
     21 H2          0.8580  -11.7008    2.3575 H         1 <0>         0.1245
     22 N4          0.6569   -9.6098    2.5456 N.pl3     1 <0>        -0.7220
     23 C15        -1.0282  -11.0811    1.5697 C.ar      1 <0>        -0.1158
     24 C16        -1.8460  -10.0097    1.2624 C.ar      1 <0>        -0.1036
     25 C17        -3.1980  -10.2089    1.0559 C.ar      1 <0>        -0.1053
     26 C18        -3.7330  -11.4808    1.1568 C.ar      1 <0>        -0.0269
     27 C19        -2.9140  -12.5527    1.4644 C.ar      1 <0>        -0.1071
     28 C20        -1.5612  -12.3531    1.6652 C.ar      1 <0>        -0.0893
     29 Cl2        -5.4311  -11.7317    0.8981 Cl        1 <0>        -0.0617
     30 C21         1.4096   -9.3376   -1.6092 C.3       1 <0>         0.4555
     31 F1          2.6963   -8.9742   -1.1973 F         1 <0>        -0.1718
     32 F2          1.4811  -10.4891   -2.4005 F         1 <0>        -0.1711
     33 F3          0.8460   -8.2951   -2.3527 F         1 <0>        -0.1602
     34 H3          0.7986    1.8777   -0.6355 H         1 <0>         0.0759
     35 H4         -0.9592    1.8590   -0.3564 H         1 <0>         0.0716
     36 H5          0.1615    1.8624    1.0265 H         1 <0>         0.0737
     37 H6         -1.3151   -0.1561   -1.6625 H         1 <0>         0.1380
     38 H7         -1.2948   -2.6165   -1.6805 H         1 <0>         0.1343
     39 H8          1.3819   -2.6116    1.6545 H         1 <0>         0.1465
     40 H9         -0.0169   -4.6507   -0.8612 H         1 <0>         0.4210
     41 H10         0.4449   -6.8332    3.2836 H         1 <0>         0.1658
     42 H11         1.0622  -11.6886   -0.0988 H         1 <0>         0.1234
     43 H12         2.2178  -10.5382    0.6109 H         1 <0>         0.1056
     44 H13         0.8762   -9.6078    3.4905 H         1 <0>         0.4302
     45 H14        -1.4284   -9.0168    1.1840 H         1 <0>         0.1335
     46 H15        -3.8369   -9.3718    0.8161 H         1 <0>         0.1351
     47 H16        -3.3311  -13.5458    1.5436 H         1 <0>         0.1388
     48 H17        -0.9210  -13.1904    1.9006 H         1 <0>         0.1383
@<TRIPOS>BOND
     1    1    2 1
     2    1   34 1
     3    1   35 1
     4    1   36 1
     5    2    7 ar
     6    2    3 ar
     7    3    4 ar
     8    3   37 1
     9    4    5 ar
    10    4   38 1
    11    5    6 ar
    12    5    9 1
    13    6    7 ar
    14    6   39 1
    15    7    8 1
    16    9   10 am
    17    9   40 1
    18   10   11 2
    19   10   12 1
    20   12   16 2
    21   12   13 1
    22   13   14 2
    23   13   41 1
    24   14   22 1
    25   14   15 1
    26   15   16 1
    27   15   17 1
    28   17   18 1
    29   17   19 1
    30   17   30 1
    31   19   20 1
    32   19   42 1
    33   19   43 1
    34   20   21 1
    35   20   22 1
    36   20   23 1
    37   22   44 1
    38   23   28 ar
    39   23   24 ar
    40   24   25 ar
    41   24   45 1
    42   25   26 ar
    43   25   46 1
    44   26   27 ar
    45   26   29 1
    46   27   28 ar
    47   27   47 1
    48   28   48 1
    49   30   31 1
    50   30   32 1
    51   30   33 1
@<TRIPOS>MOLECULE
ZINC39530138
   51    54     0     0     0
SMALL
USER_CHARGES

@<TRIPOS>ATOM
      1 C1         -0.0167    1.3781    0.0096 C.ar      1 <0>        -0.1052
      2 C2          1.1709    2.0855    0.0021 C.ar      1 <0>        -0.1056
      3 C3          2.3773    1.4107   -0.0130 C.ar      1 <0>        -0.1048
      4 C4          2.3960    0.0285   -0.0201 C.ar      1 <0>        -0.1241
      5 C5          1.2084   -0.6789   -0.0117 C.ar      1 <0>        -0.1422
      6 C6          0.0021   -0.0041    0.0020 C.ar      1 <0>        -0.1075
      7 C7          3.7112   -0.7071   -0.0376 C.3       1 <0>        -0.0949
      8 C8          4.1714   -0.9633    1.3989 C.3       1 <0>         0.0131
      9 H1          4.2087   -0.0192    1.9424 H         1 <0>         0.1382
     10 C9          5.5653   -1.5992    1.3831 C.3       1 <0>         0.1415
     11 N1          5.9311   -1.9554    2.7628 N.pl3     1 <0>        -0.6696
     12 C10         4.9660   -2.7305    3.5577 C.3       1 <0>         0.1194
     13 C11         3.6003   -2.0412    3.4708 C.3       1 <0>        -0.0223
     14 N2          3.2270   -1.8722    2.0608 N.4       1 <0>        -0.5031
     15 C12         7.1588   -1.5692    3.3021 C.ar      1 <0>         0.1916
     16 C13         7.2762   -0.3590    3.9705 C.ar      1 <0>        -0.1180
     17 C14         8.4924    0.0215    4.5042 C.ar      1 <0>        -0.0738
     18 C15         9.5996   -0.7999    4.3761 C.ar      1 <0>        -0.0942
     19 C16         9.4976   -2.0070    3.7135 C.ar      1 <0>        -0.0658
     20 C17         8.2755   -2.4039    3.1759 C.ar      1 <0>        -0.0392
     21 C18         8.1592   -3.7016    2.4684 C.ar      1 <0>        -0.0696
     22 C19         8.3319   -4.8961    3.1644 C.ar      1 <0>        -0.0910
     23 C20         8.2222   -6.1015    2.5014 C.ar      1 <0>        -0.1215
     24 C21         7.9415   -6.1286    1.1466 C.ar      1 <0>        -0.0967
     25 C22         7.7688   -4.9496    0.4464 C.ar      1 <0>        -0.1451
     26 C23         7.8700   -3.7325    1.1007 C.ar      1 <0>         0.1210
     27 O1          7.6945   -2.5730    0.4146 O.3       1 <0>        -0.4991
     28 I1         11.4371   -0.2086    5.1902 I         1 <0>        -0.0228
     29 H2         -0.9591    1.9053    0.0259 H         1 <0>         0.1316
     30 H3          1.1563    3.1654    0.0076 H         1 <0>         0.1319
     31 H4          3.3051    1.9634   -0.0196 H         1 <0>         0.1290
     32 H5          1.2231   -1.7588   -0.0176 H         1 <0>         0.1209
     33 H6         -0.9258   -0.5567    0.0082 H         1 <0>         0.1311
     34 H7          3.5884   -1.6586   -0.5549 H         1 <0>         0.0977
     35 H8          4.4573   -0.1052   -0.5563 H         1 <0>         0.1208
     36 H9          5.5515   -2.4966    0.7646 H         1 <0>         0.0879
     37 H10         6.2882   -0.8873    0.9847 H         1 <0>         0.1198
     38 H11         4.8917   -3.7422    3.1588 H         1 <0>         0.0779
     39 H12         5.2927   -2.7666    4.5970 H         1 <0>         0.1147
     40 H13         2.8517   -2.6530    3.9742 H         1 <0>         0.1389
     41 H14         3.6549   -1.0645    3.9518 H         1 <0>         0.1316
     42 H15         2.2960   -1.4875    2.0044 H         1 <0>         0.4245
     43 H16         6.4163    0.2862    4.0734 H         1 <0>         0.1304
     44 H17         8.5800    0.9644    5.0235 H         1 <0>         0.1352
     45 H18        10.3638   -2.6446    3.6155 H         1 <0>         0.1345
     46 H19         8.5517   -4.8787    4.2217 H         1 <0>         0.1274
     47 H20         8.3562   -7.0270    3.0417 H         1 <0>         0.1302
     48 H21         7.8574   -7.0754    0.6339 H         1 <0>         0.1299
     49 H22         7.5507   -4.9771   -0.6110 H         1 <0>         0.1305
     50 H23         8.5075   -2.2149    0.0329 H         1 <0>         0.3915
     51 H24         3.2461   -2.7694    1.5994 H         1 <0>         0.4232
@<TRIPOS>BOND
     1    1    6 ar
     2    1    2 ar
     3    1   29 1
     4    2    3 ar
     5    2   30 1
     6    3    4 ar
     7    3   31 1
     8    4    5 ar
     9    4    7 1
    10    5    6 ar
    11    5   32 1
    12    6   33 1
    13    7    8 1
    14    7   34 1
    15    7   35 1
    16    8    9 1
    17    8   14 1
    18    8   10 1
    19   10   11 1
    20   10   36 1
    21   10   37 1
    22   11   12 1
    23   11   15 1
    24   12   13 1
    25   12   38 1
    26   12   39 1
    27   13   14 1
    28   13   40 1
    29   13   41 1
    30   14   42 1
    31   14   51 1
    32   15   20 ar
    33   15   16 ar
    34   16   17 ar
    35   16   43 1
    36   17   18 ar
    37   17   44 1
    38   18   19 ar
    39   18   28 1
    40   19   20 ar
    41   19   45 1
    42   20   21 1
    43   21   26 ar
    44   21   22 ar
    45   22   23 ar
    46   22   46 1
    47   23   24 ar
    48   23   47 1
    49   24   25 ar
    50   24   48 1
    51   25   26 ar
    52   25   49 1
    53   26   27 1
    54   27   50 1
@<TRIPOS>MOLECULE
ZINC59170619
   51    54     0     0     0
SMALL
USER_CHARGES

@<TRIPOS>ATOM
      1 C1          1.3223    2.3792   -0.1373 C.3       1 <0>        -0.1339
      2 C2          1.1395    0.8976   -0.3434 C.ar      1 <0>        -0.0047
      3 C3          1.2979    0.3503   -1.6029 C.ar      1 <0>        -0.1372
      4 C4          1.1303   -1.0088   -1.7920 C.ar      1 <0>        -0.0080
      5 C5          0.8047   -1.8206   -0.7216 C.ar      1 <0>        -0.7003
      6 C6          0.6472   -1.2734    0.5380 C.ar      1 <0>        -0.0154
      7 C7          0.8190    0.0850    0.7280 C.ar      1 <0>        -0.1301
      8 S1          0.5898   -3.5527   -0.9629 S.o2      1 <0>         2.6628
      9 O1         -0.1408   -4.0314    0.1580 O.2       1 <0>        -0.9124
     10 O2          0.1348   -3.7234   -2.2982 O.2       1 <0>        -0.8895
     11 N1          2.0905   -4.2482   -0.8816 N.pl3     1 <0>        -0.9149
     12 N2          2.8485   -4.1435    0.2919 N.pl3     1 <0>        -0.2965
     13 C8          4.0671   -4.6040    0.3237 C.2       1 <0>         0.5224
     14 C9          4.9291   -4.4027    1.5114 C.2       1 <0>        -0.2608
     15 C10         5.9222   -5.3270    1.7312 C.2       1 <0>         0.1372
     16 C11         6.0455   -6.4333    0.7743 C.ar      1 <0>        -0.1729
     17 C12         6.8407   -7.5455    1.0678 C.ar      1 <0>        -0.0244
     18 C13         6.9388   -8.5733    0.1547 C.ar      1 <0>        -0.1160
     19 C14         6.2547   -8.5088   -1.0490 C.ar      1 <0>        -0.0265
     20 C15         5.4661   -7.4149   -1.3520 C.ar      1 <0>        -0.1124
     21 C16         5.3551   -6.3709   -0.4488 C.ar      1 <0>         0.1231
     22 O3          4.5875   -5.2919   -0.7341 O.3       1 <0>        -0.2119
     23 C17         4.7305   -3.2600    2.4184 C.2       1 <0>         0.5820
     24 O4          3.7993   -2.4976    2.2414 O.2       1 <0>        -0.5131
     25 N3          5.5806   -3.0587    3.4447 N.am      1 <0>        -0.6394
     26 C18         5.3382   -2.0310    4.3623 C.ar      1 <0>         0.1547
     27 C19         4.0658   -1.4870    4.4777 C.ar      1 <0>        -0.1174
     28 C20         3.8295   -0.4720    5.3856 C.ar      1 <0>        -0.0106
     29 C21         4.8596    0.0021    6.1794 C.ar      1 <0>        -0.1019
     30 C22         6.1275   -0.5374    6.0669 C.ar      1 <0>        -0.0688
     31 C23         6.3691   -1.5563    5.1645 C.ar      1 <0>        -0.0600
     32 Cl1         7.9599   -2.2379    5.0291 Cl        1 <0>        -0.0477
     33 Cl2         2.2393    0.2092    5.5303 Cl        1 <0>        -0.0410
     34 H1          2.3660    2.5872    0.0983 H         1 <0>         0.0860
     35 H2          1.0425    2.9099   -1.0473 H         1 <0>         0.0797
     36 H3          0.6906    2.7120    0.6863 H         1 <0>         0.0798
     37 H4          1.5523    0.9845   -2.4392 H         1 <0>         0.1414
     38 H5          1.2533   -1.4363   -2.7762 H         1 <0>         0.1440
     39 H6          0.3924   -1.9076    1.3743 H         1 <0>         0.1433
     40 H7          0.6996    0.5119    1.7128 H         1 <0>         0.1414
     41 H8          2.4447   -4.7282   -1.6466 H         1 <0>         0.4559
     42 H9          6.5881   -5.2422    2.5772 H         1 <0>         0.1873
     43 H10         7.3753   -7.5986    2.0047 H         1 <0>         0.1610
     44 H11         7.5525   -9.4335    0.3783 H         1 <0>         0.1579
     45 H12         6.3389   -9.3204   -1.7565 H         1 <0>         0.1624
     46 H13         4.9371   -7.3742   -2.2927 H         1 <0>         0.1618
     47 H14         6.3604   -3.6263    3.5471 H         1 <0>         0.4185
     48 H15         3.2618   -1.8564    3.8583 H         1 <0>         0.1742
     49 H16         4.6725    0.7955    6.8879 H         1 <0>         0.1524
     50 H17         6.9291   -0.1653    6.6876 H         1 <0>         0.1561
     51 H18         2.4663   -3.7282    1.0807 H         1 <0>         0.4826
@<TRIPOS>BOND
     1    1    2 1
     2    1   34 1
     3    1   35 1
     4    1   36 1
     5    2    7 ar
     6    2    3 ar
     7    3    4 ar
     8    3   37 1
     9    4    5 ar
    10    4   38 1
    11    5    6 ar
    12    5    8 1
    13    6    7 ar
    14    6   39 1
    15    7   40 1
    16    8    9 2
    17    8   10 2
    18    8   11 1
    19   11   12 1
    20   11   41 1
    21   12   13 2
    22   12   51 1
    23   13   22 1
    24   13   14 1
    25   14   15 2
    26   14   23 1
    27   15   16 1
    28   15   42 1
    29   16   21 ar
    30   16   17 ar
    31   17   18 ar
    32   17   43 1
    33   18   19 ar
    34   18   44 1
    35   19   20 ar
    36   19   45 1
    37   20   21 ar
    38   20   46 1
    39   21   22 1
    40   23   24 2
    41   23   25 am
    42   25   26 1
    43   25   47 1
    44   26   31 ar
    45   26   27 ar
    46   27   28 ar
    47   27   48 1
    48   28   29 ar
    49   28   33 1
    50   29   30 ar
    51   29   49 1
    52   30   31 ar
    53   30   50 1
    54   31   32 1
@<TRIPOS>MOLECULE
ZINC09463290
   55    58     0     0     0
SMALL
USER_CHARGES
6-amino-5-[[4-(2-pyridyl)piperazin-1-yl]-[3-(trifluoromethyl)phenyl]-methyl]-1H-pyrimidine-2,4-dione
@<TRIPOS>ATOM
      1 C1         -5.2890    8.9358    4.6995 C.ar      1 <0>         0.0447
      2 C2         -5.9085    7.8970    5.3821 C.ar      1 <0>        -0.1316
      3 C3         -5.4133    6.6149    5.2559 C.ar      1 <0>         0.1571
      4 C4         -3.7444    7.3297    3.8310 C.ar      1 <0>         0.3501
      5 C5         -4.1898    8.6453    3.9122 C.ar      1 <0>        -0.1400
      6 N1         -2.6408    7.0234    3.0433 N.pl3     1 <0>        -0.4824
      7 C6         -2.3385    5.5862    3.0963 C.3       1 <0>        -0.0090
      8 C7         -1.0735    5.3034    2.2825 C.3       1 <0>         0.0024
      9 C8         -1.5796    7.1822    0.8428 C.3       1 <0>         0.0033
     10 C9         -2.8446    7.4650    1.6566 C.3       1 <0>         0.0247
     11 C10        -0.1110    5.4214    0.0633 C.3       1 <0>         0.2022
     12 H1          0.7709    5.9217    0.4634 H         1 <0>         0.1383
     13 C11         0.1115    3.9309    0.0680 C.ar      1 <0>        -0.1453
     14 C12        -0.9691    3.0705    0.0084 C.ar      1 <0>        -0.0831
     15 C13        -0.7648    1.7036    0.0069 C.ar      1 <0>        -0.1029
     16 C14         0.5196    1.1965    0.0766 C.ar      1 <0>        -0.0426
     17 C15         1.5998    2.0567    0.1367 C.ar      1 <0>        -0.1656
     18 C16         1.3957    3.4241    0.1324 C.ar      1 <0>        -0.0433
     19 C17         3.0001    1.5040    0.2063 C.3       1 <0>         0.5054
     20 F1          2.9506    0.1059    0.1969 F         1 <0>        -0.1672
     21 F2          3.7337    1.9521   -0.8974 F         1 <0>        -0.1705
     22 F3          3.6158    1.9410    1.3841 F         1 <0>        -0.1718
     23 C18        -0.3563    5.8883   -1.3484 C.2       1 <0>        -0.4643
     24 C19         0.5718    6.6554   -1.9961 C.2       1 <0>         0.5601
     25 N2          0.3256    7.0690   -3.2828 N.am      1 <0>        -0.6429
     26 H2          1.0000    7.6306   -3.7621 H         1 <0>         0.4557
     27 C20        -0.8179    6.7227   -3.9019 C.2       1 <0>         0.7109
     28 O1         -1.0192    7.0972   -5.0410 O.2       1 <0>        -0.4889
     29 N3         -1.7420    5.9688   -3.2792 N.am      1 <0>        -0.6573
     30 H3         -2.5873    5.7269   -3.7556 H         1 <0>         0.4527
     31 C21        -1.5383    5.5369   -2.0191 C.2       1 <0>         0.5919
     32 O2         -2.3777    4.8494   -1.4631 O.2       1 <0>        -0.5521
     33 N4          1.7377    7.0092   -1.3667 N.pl3     1 <0>        -0.8186
     34 H4         -5.6571    9.9478    4.7821 H         1 <0>         0.1865
     35 H5         -6.7693    8.0905    6.0050 H         1 <0>         0.1954
     36 H6         -5.8921    5.8042    5.7850 H         1 <0>         0.2052
     37 H7         -3.6842    9.4289    3.3674 H         1 <0>         0.1902
     38 H8         -3.1731    5.0234    2.6783 H         1 <0>         0.0906
     39 H9         -2.1793    5.2860    4.1319 H         1 <0>         0.1410
     40 H10        -0.8637    4.2339    2.2964 H         1 <0>         0.1531
     41 H11        -0.2331    5.8449    2.7167 H         1 <0>         0.1531
     42 H12        -0.7449    7.7450    1.2607 H         1 <0>         0.1489
     43 H13        -1.7388    7.4824   -0.1929 H         1 <0>         0.1475
     44 H14        -3.6850    6.9236    1.2223 H         1 <0>         0.0930
     45 H15        -3.0544    8.5346    1.6427 H         1 <0>         0.1480
     46 H16        -1.9726    3.4666   -0.0415 H         1 <0>         0.1457
     47 H17        -1.6086    1.0315   -0.0445 H         1 <0>         0.1495
     48 H18         0.6790    0.1284    0.0797 H         1 <0>         0.1538
     49 H19         2.2398    4.0962    0.1789 H         1 <0>         0.1402
     50 H20         1.9544    6.6325   -0.4995 H         1 <0>         0.4258
     51 H21         2.3457    7.6361   -1.7888 H         1 <0>         0.4281
     52 N5         -4.3395    6.2918    4.4867 N.ar      1 <0>        -0.5200
     53 H22        -3.9978    5.3270    4.4046 H         1 <0>         0.4682
     54 N6         -1.2997    5.7314    0.8860 N.4       1 <0>        -0.3995
     55 H23        -2.1085    5.2240    0.5083 H         1 <0>         0.4358
@<TRIPOS>BOND
     1    1    5 ar
     2    1    2 ar
     3    1   34 1
     4    2    3 ar
     5    2   35 1
     6    3   36 1
     7    3   52 ar
     8    4    5 ar
     9    4    6 1
    10    4   52 ar
    11    5   37 1
    12    6   10 1
    13    6    7 1
    14    7    8 1
    15    7   38 1
    16    7   39 1
    17    8   40 1
    18    8   41 1
    19    8   54 1
    20    9   10 1
    21    9   42 1
    22    9   43 1
    23    9   54 1
    24   10   44 1
    25   10   45 1
    26   11   12 1
    27   11   13 1
    28   11   23 1
    29   11   54 1
    30   13   18 ar
    31   13   14 ar
    32   14   15 ar
    33   14   46 1
    34   15   16 ar
    35   15   47 1
    36   16   17 ar
    37   16   48 1
    38   17   18 ar
    39   17   19 1
    40   18   49 1
    41   19   20 1
    42   19   21 1
    43   19   22 1
    44   23   31 1
    45   23   24 2
    46   24   25 1
    47   24   33 1
    48   25   26 1
    49   25   27 am
    50   27   28 2
    51   27   29 am
    52   29   30 1
    53   29   31 am
    54   31   32 2
    55   33   50 1
    56   33   51 1
    57   52   53 1
    58   54   55 1
@<TRIPOS>MOLECULE
ZINC39531542
   61    64     0     0     0
SMALL
USER_CHARGES

@<TRIPOS>ATOM
      1 C1         -0.3668    1.4646   -0.9273 C.3       1 <0>        -0.1375
      2 C2         -0.2637   -0.0206   -0.6937 C.ar      1 <0>        -0.0366
      3 C3         -0.2303   -0.8888   -1.7689 C.ar      1 <0>        -0.1021
      4 C4         -0.1358   -2.2511   -1.5546 C.ar      1 <0>        -0.0790
      5 C5         -0.0740   -2.7453   -0.2651 C.ar      1 <0>        -0.1656
      6 C6         -0.1065   -1.8771    0.8101 C.ar      1 <0>        -0.1209
      7 C7         -0.1967   -0.5145    0.5957 C.ar      1 <0>        -0.1040
      8 C8          0.0281   -4.2306   -0.0315 C.3       1 <0>         0.0717
      9 H1         -0.3099   -4.7624   -0.9209 H         1 <0>         0.1564
     10 C9          1.4830   -4.6018    0.2626 C.3       1 <0>         0.1180
     11 N1          2.3093   -4.3045   -0.9100 N.pl3     1 <0>        -0.7409
     12 C10         3.6686   -4.6381   -0.9110 C.ar      1 <0>         0.1735
     13 C11         4.2340   -5.2555    0.1951 C.ar      1 <0>        -0.1817
     14 C12         5.5765   -5.5844    0.1916 C.ar      1 <0>        -0.0800
     15 C13         6.3586   -5.2996   -0.9124 C.ar      1 <0>        -0.1385
     16 C14         5.8018   -4.6843   -2.0186 C.ar      1 <0>        -0.0940
     17 C15         4.4562   -4.3562   -2.0251 C.ar      1 <0>         0.0450
     18 O1          3.9062   -3.7557   -3.1145 O.3       1 <0>        -0.4940
     19 N2         -0.8137   -4.6053    1.1126 N.4       1 <0>        -0.3900
     20 C16        -0.7439   -6.0584    1.3168 C.3       1 <0>        -0.0422
     21 C17        -1.6206   -6.4487    2.5084 C.3       1 <0>        -0.0251
     22 N3         -3.0114   -6.0579    2.2418 N.4       1 <0>        -0.5152
     23 C18        -3.0812   -4.6048    2.0377 C.3       1 <0>         0.0808
     24 H2         -2.7256   -4.0947    2.9329 H         1 <0>         0.1725
     25 C19        -2.2044   -4.2145    0.8461 C.3       1 <0>        -0.0268
     26 C20        -4.5079   -4.2039    1.7643 C.ar      1 <0>        -0.1913
     27 C21        -5.4216   -5.1481    1.3370 C.ar      1 <0>        -0.1090
     28 C22        -6.7304   -4.7808    1.0855 C.ar      1 <0>        -0.1012
     29 C23        -7.1287   -3.4683    1.2613 C.ar      1 <0>        -0.0567
     30 C24        -6.2192   -2.5207    1.6888 C.ar      1 <0>        -0.1233
     31 C25        -4.9063   -2.8878    1.9469 C.ar      1 <0>         0.1479
     32 O2         -4.0109   -1.9585    2.3730 O.3       1 <0>        -0.4911
     33 H3          0.6335    1.8895   -1.0113 H         1 <0>         0.0887
     34 H4         -0.9188    1.6500   -1.8487 H         1 <0>         0.0803
     35 H5         -0.8896    1.9285   -0.0909 H         1 <0>         0.0790
     36 H6         -0.2786   -0.5026   -2.7764 H         1 <0>         0.1425
     37 H7         -0.1104   -2.9294   -2.3947 H         1 <0>         0.1354
     38 H8         -0.0586   -2.2632    1.8176 H         1 <0>         0.1167
     39 H9         -0.2183    0.1641    1.4357 H         1 <0>         0.1404
     40 H10         1.8403   -4.0238    1.1148 H         1 <0>         0.0816
     41 H11         1.5473   -5.6653    0.4922 H         1 <0>         0.0801
     42 H12         1.9144   -3.8764   -1.6857 H         1 <0>         0.4087
     43 H13         3.6255   -5.4788    1.0590 H         1 <0>         0.1172
     44 H14         6.0158   -6.0648    1.0534 H         1 <0>         0.1304
     45 H15         7.4072   -5.5581   -0.9107 H         1 <0>         0.1333
     46 H16         6.4155   -4.4632   -2.8794 H         1 <0>         0.1371
     47 H17         3.9421   -2.7897   -3.0912 H         1 <0>         0.3853
     48 H18        -1.0995   -6.5685    0.4215 H         1 <0>         0.1611
     49 H19         0.2880   -6.3484    1.5145 H         1 <0>         0.1825
     50 H20        -1.5688   -7.5269    2.6598 H         1 <0>         0.1868
     51 H21        -1.2650   -5.9385    3.4036 H         1 <0>         0.1604
     52 H22        -3.3405   -6.5301    1.4131 H         1 <0>         0.4369
     53 H23        -2.2562   -3.1363    0.6947 H         1 <0>         0.1737
     54 H24        -2.5600   -4.7247   -0.0491 H         1 <0>         0.1603
     55 H25        -5.1130   -6.1738    1.1989 H         1 <0>         0.1238
     56 H26        -7.4430   -5.5202    0.7508 H         1 <0>         0.1481
     57 H27        -8.1517   -3.1838    1.0639 H         1 <0>         0.1506
     58 H28        -6.5308   -1.4958    1.8259 H         1 <0>         0.1521
     59 H29        -3.5400   -1.5091    1.6578 H         1 <0>         0.3985
     60 H30        -3.5896   -6.3153    3.0277 H         1 <0>         0.4575
     61 H31        -0.4845   -4.1331    1.9413 H         1 <0>         0.4316
@<TRIPOS>BOND
     1    1    2 1
     2    1   33 1
     3    1   34 1
     4    1   35 1
     5    2    7 ar
     6    2    3 ar
     7    3    4 ar
     8    3   36 1
     9    4    5 ar
    10    4   37 1
    11    5    6 ar
    12    5    8 1
    13    6    7 ar
    14    6   38 1
    15    7   39 1
    16    8    9 1
    17    8   10 1
    18    8   19 1
    19   10   11 1
    20   10   40 1
    21   10   41 1
    22   11   12 1
    23   11   42 1
    24   12   17 ar
    25   12   13 ar
    26   13   14 ar
    27   13   43 1
    28   14   15 ar
    29   14   44 1
    30   15   16 ar
    31   15   45 1
    32   16   17 ar
    33   16   46 1
    34   17   18 1
    35   18   47 1
    36   19   25 1
    37   19   20 1
    38   19   61 1
    39   20   21 1
    40   20   48 1
    41   20   49 1
    42   21   22 1
    43   21   50 1
    44   21   51 1
    45   22   23 1
    46   22   52 1
    47   22   60 1
    48   23   24 1
    49   23   25 1
    50   23   26 1
    51   25   53 1
    52   25   54 1
    53   26   31 ar
    54   26   27 ar
    55   27   28 ar
    56   27   55 1
    57   28   29 ar
    58   28   56 1
    59   29   30 ar
    60   29   57 1
    61   30   31 ar
    62   30   58 1
    63   31   32 1
    64   32   59 1
@<TRIPOS>MOLECULE
ZINC43684241
   42    42     0     0     0
SMALL
USER_CHARGES

@<TRIPOS>ATOM
      1 C1         -0.0777    1.4810   -0.4738 C.3       1 <0>        -0.1607
      2 C2          0.1209   -0.0279   -0.3164 C.3       1 <0>        -0.1189
      3 C3          0.7625   -0.5930   -1.5852 C.3       1 <0>        -0.1509
      4 C4          0.9611   -2.1019   -1.4277 C.3       1 <0>        -0.0181
      5 N1          1.5771   -2.6445   -2.6460 N.4       1 <0>        -0.3732
      6 C5          1.6582   -4.1077   -2.5437 C.3       1 <0>         0.0832
      7 C6          0.2674   -4.6876   -2.5215 C.2       1 <0>        -0.2280
      8 C7         -0.5471   -4.9923   -3.5649 C.2       1 <0>        -0.0897
      9 C8         -1.7932   -5.5201   -3.3119 C.2       1 <0>        -0.1095
     10 C9         -2.1709   -5.7209   -2.0084 C.2       1 <0>        -0.0666
     11 S1         -0.7298   -5.1578   -1.1175 S.3       1 <0>         0.1470
     12 C10        -3.3990   -6.2498   -1.4960 C.1       1 <0>         0.0108
     13 C11        -4.4059   -6.6834   -1.0759 C.1       1 <0>        -0.2153
     14 C12        -5.6683   -7.2271   -0.5492 C.3       1 <0>         0.1368
     15 N2         -5.6153   -7.2539    0.9186 N.4       1 <0>        -0.6376
     16 C13         2.9281   -2.0888   -2.8008 C.3       1 <0>        -0.0403
     17 C14         3.4956   -2.5113   -4.1314 C.2       1 <0>         0.5079
     18 O1          2.8037   -3.1198   -4.9200 O.2       1 <0>        -0.5314
     19 N3          4.7719   -2.2129   -4.4450 N.am      1 <0>        -0.8207
     20 H1          0.8880    1.9595   -0.6368 H         1 <0>         0.0616
     21 H2         -0.7278    1.6748   -1.3270 H         1 <0>         0.0601
     22 H3         -0.5347    1.8836    0.4301 H         1 <0>         0.0686
     23 H4          0.7710   -0.2217    0.5368 H         1 <0>         0.0752
     24 H5         -0.8448   -0.5064   -0.1534 H         1 <0>         0.0712
     25 H6          0.1124   -0.3992   -2.4383 H         1 <0>         0.0898
     26 H7          1.7282   -0.1145   -1.7481 H         1 <0>         0.0897
     27 H8          1.6112   -2.2957   -0.5746 H         1 <0>         0.1368
     28 H9         -0.0046   -2.5804   -1.2648 H         1 <0>         0.1299
     29 H10         2.2027   -4.5022   -3.4016 H         1 <0>         0.1640
     30 H11         2.1798   -4.3794   -1.6260 H         1 <0>         0.1447
     31 H12        -0.2213   -4.8224   -4.5805 H         1 <0>         0.1613
     32 H13        -2.4603   -5.7708   -4.1234 H         1 <0>         0.1585
     33 H14        -6.4976   -6.5974   -0.8714 H         1 <0>         0.1621
     34 H15        -5.8132   -8.2396   -0.9260 H         1 <0>         0.1624
     35 H16        -4.8477   -7.8368    1.2169 H         1 <0>         0.4398
     36 H17        -5.4812   -6.3167    1.2675 H         1 <0>         0.4391
     37 H18         2.8808   -1.0007   -2.7549 H         1 <0>         0.1695
     38 H19         3.5672   -2.4588   -1.9992 H         1 <0>         0.1649
     39 H20         5.3253   -1.7262   -3.8143 H         1 <0>         0.4156
     40 H21         5.1372   -2.4849   -5.3015 H         1 <0>         0.4267
     41 H22         1.0165   -2.3938   -3.4466 H         1 <0>         0.4334
     42 H23        -6.4807   -7.6266    1.2797 H         1 <0>         0.4501
@<TRIPOS>BOND
     1    1    2 1
     2    1   20 1
     3    1   21 1
     4    1   22 1
     5    2    3 1
     6    2   23 1
     7    2   24 1
     8    3    4 1
     9    3   25 1
    10    3   26 1
    11    4    5 1
    12    4   27 1
    13    4   28 1
    14    5    6 1
    15    5   16 1
    16    5   41 1
    17    6    7 1
    18    6   29 1
    19    6   30 1
    20    7   11 1
    21    7    8 2
    22    8    9 1
    23    8   31 1
    24    9   10 2
    25    9   32 1
    26   10   11 1
    27   10   12 1
    28   12   13 3
    29   13   14 1
    30   14   15 1
    31   14   33 1
    32   14   34 1
    33   15   35 1
    34   15   36 1
    35   15   42 1
    36   16   17 1
    37   16   37 1
    38   16   38 1
    39   17   18 2
    40   17   19 am
    41   19   39 1
    42   19   40 1
@<TRIPOS>MOLECULE
ZINC43261275
   38    38     0     0     0
SMALL
USER_CHARGES

@<TRIPOS>ATOM
      1 C1          1.5620    1.8181   -0.0842 C.3       1 <0>        -0.2029
      2 C2          1.2297    0.3445    0.1582 C.3       1 <0>         0.0148
      3 H1          0.4096    0.2696    0.8723 H         1 <0>         0.1935
      4 C3          0.8175   -0.3093   -1.1622 C.3       1 <0>         0.1124
      5 H2         -0.0011    0.2561   -1.6076 H         1 <0>         0.1991
      6 C4          0.3682   -1.7243   -0.9034 C.2       1 <0>        -0.3117
      7 C5         -0.8196   -2.3089   -1.1932 C.2       1 <0>        -0.0116
      8 C6         -1.0126   -3.6367   -0.8598 C.2       1 <0>        -0.1347
      9 C7         -0.0070   -4.3146   -0.2525 C.2       1 <0>        -0.0805
     10 S1          1.2655   -3.0672   -0.1426 S.3       1 <0>         0.0499
     11 Br1         0.0383   -6.1157    0.3218 Br        1 <0>         0.1120
     12 N1          1.9628   -0.3197   -2.0820 N.4       1 <0>        -0.3935
     13 C8          2.8282   -1.4660   -1.7736 C.3       1 <0>        -0.0393
     14 C9          4.1036   -1.3830   -2.6146 C.3       1 <0>         0.0453
     15 O1          4.8214   -0.1948   -2.2753 O.3       1 <0>        -0.5906
     16 C10         1.4793   -0.4293   -3.4648 C.3       1 <0>        -0.0132
     17 C11         0.7027    0.8358   -3.8354 C.3       1 <0>         0.0448
     18 O2          1.5720    1.9675   -3.7605 O.3       1 <0>        -0.5790
     19 N2          2.4118   -0.3419    0.6964 N.4       1 <0>        -0.6534
     20 H3          2.4468    1.8918   -0.7166 H         1 <0>         0.0883
     21 H4          0.7206    2.3037   -0.5785 H         1 <0>         0.1290
     22 H5          1.7554    2.3087    0.8698 H         1 <0>         0.1210
     23 H6         -1.6039   -1.7458   -1.6770 H         1 <0>         0.1681
     24 H7         -1.9498   -4.1265   -1.0793 H         1 <0>         0.1767
     25 H8          3.0891   -1.4499   -0.7154 H         1 <0>         0.0992
     26 H9          2.3008   -2.3917   -2.0037 H         1 <0>         0.1728
     27 H10         4.7277   -2.2540   -2.4150 H         1 <0>         0.1117
     28 H11         3.8406   -1.3590   -3.6721 H         1 <0>         0.0905
     29 H12         5.6432   -0.0767   -2.7711 H         1 <0>         0.4263
     30 H13         2.3283   -0.5448   -4.1385 H         1 <0>         0.1532
     31 H14         0.8247   -1.2964   -3.5532 H         1 <0>         0.1516
     32 H15         0.3164    0.7409   -4.8502 H         1 <0>         0.1097
     33 H16        -0.1274    0.9688   -3.1416 H         1 <0>         0.0705
     34 H17         1.1290    2.8142   -3.9084 H         1 <0>         0.4161
     35 H18         2.5811   -0.0297    1.6408 H         1 <0>         0.4576
     36 H19         2.2519   -1.3382    0.6951 H         1 <0>         0.4215
     37 H20         2.4872    0.5358   -1.9759 H         1 <0>         0.4410
     38 H21         3.2143   -0.1294    0.1229 H         1 <0>         0.4337
@<TRIPOS>BOND
     1    1    2 1
     2    1   20 1
     3    1   21 1
     4    1   22 1
     5    2    3 1
     6    2    4 1
     7    2   19 1
     8    4    5 1
     9    4    6 1
    10    4   12 1
    11    6   10 1
    12    6    7 2
    13    7    8 1
    14    7   23 1
    15    8    9 2
    16    8   24 1
    17    9   10 1
    18    9   11 1
    19   12   13 1
    20   12   16 1
    21   12   37 1
    22   13   14 1
    23   13   25 1
    24   13   26 1
    25   14   15 1
    26   14   27 1
    27   14   28 1
    28   15   29 1
    29   16   17 1
    30   16   30 1
    31   16   31 1
    32   17   18 1
    33   17   32 1
    34   17   33 1
    35   18   34 1
    36   19   35 1
    37   19   36 1
    38   19   38 1
@<TRIPOS>MOLECULE
ZINC63179825
   44    44     0     0     0
SMALL
USER_CHARGES

@<TRIPOS>ATOM
      1 C1         -0.0187    1.5260    0.0104 C.3       1 <0>        -0.1392
      2 C2          1.4200    2.0506   -0.0005 C.3       1 <0>        -0.1308
      3 C3          2.1724    1.4738    1.2021 C.3       1 <0>        -0.1296
      4 H1          1.7089    1.8249    2.1241 H         1 <0>         0.1285
      5 C4          2.1120   -0.0543    1.1496 C.3       1 <0>         0.0091
      6 N1          0.7121   -0.4939    1.1896 N.4       1 <0>        -0.3691
      7 C5          0.0021   -0.0041    0.0020 C.3       1 <0>        -0.0258
      8 C6          0.6620   -1.9618    1.2175 C.3       1 <0>        -0.0286
      9 C7         -0.7666   -2.4126    1.3823 C.2       1 <0>         0.5116
     10 O1         -1.6554   -1.5918    1.4681 O.2       1 <0>        -0.5170
     11 N2         -1.0565   -3.7278    1.4344 N.am      1 <0>        -0.7025
     12 C8         -2.4452   -4.1660    1.5946 C.3       1 <0>         0.0728
     13 C9         -2.4974   -5.6948    1.6237 C.3       1 <0>         0.4495
     14 F1         -1.7327   -6.1672    2.6957 F         1 <0>        -0.1746
     15 F2         -3.8236   -6.1133    1.7767 F         1 <0>        -0.1606
     16 F3         -1.9837   -6.2018    0.4253 F         1 <0>        -0.1746
     17 C10         3.6102    1.9232    1.1590 C.2       1 <0>         0.5346
     18 O2          4.5006    1.1021    1.0963 O.2       1 <0>        -0.5121
     19 N3          3.9066    3.2376    1.1901 N.am      1 <0>        -0.7248
     20 C11         5.3043    3.6745    1.1481 C.3       1 <0>         0.0889
     21 C12         5.3626    5.2027    1.1958 C.3       1 <0>        -0.0201
     22 N4          6.7641    5.6408    1.1537 N.4       1 <0>        -0.6325
     23 H2         -0.5277    1.8781    0.9076 H         1 <0>         0.0954
     24 H3         -0.5447    1.8877   -0.8730 H         1 <0>         0.1225
     25 H4          1.9137    1.7415   -0.9218 H         1 <0>         0.0916
     26 H5          1.4117    3.1387    0.0625 H         1 <0>         0.0983
     27 H6          2.5760   -0.4043    0.2275 H         1 <0>         0.1428
     28 H7          2.6469   -0.4683    2.0043 H         1 <0>         0.1434
     29 H8         -1.0207   -0.3809    0.0096 H         1 <0>         0.1535
     30 H9          0.5111   -0.3552   -0.8956 H         1 <0>         0.1305
     31 H10         1.0622   -2.3568    0.2838 H         1 <0>         0.1670
     32 H11         1.2577   -2.3299    2.0528 H         1 <0>         0.1681
     33 H12        -0.3456   -4.3842    1.3658 H         1 <0>         0.4205
     34 H13        -2.8454   -3.7709    2.5283 H         1 <0>         0.1297
     35 H14        -3.0410   -3.7979    0.7594 H         1 <0>         0.1295
     36 H15         3.1945    3.8943    1.2402 H         1 <0>         0.4133
     37 H16         5.8393    3.2636    2.0043 H         1 <0>         0.0968
     38 H17         5.7677    3.3218    0.2267 H         1 <0>         0.0967
     39 H18         4.8276    5.6135    0.3395 H         1 <0>         0.1429
     40 H19         4.8992    5.5554    2.1171 H         1 <0>         0.1430
     41 H20         6.8026    6.6485    1.1851 H         1 <0>         0.4486
     42 H21         7.2593    5.2604    1.9463 H         1 <0>         0.4410
     43 H22         7.1931    5.3142    0.3008 H         1 <0>         0.4408
     44 H23         0.2695   -0.1284    2.0194 H         1 <0>         0.4309
@<TRIPOS>BOND
     1    1    7 1
     2    1    2 1
     3    1   23 1
     4    1   24 1
     5    2    3 1
     6    2   25 1
     7    2   26 1
     8    3    4 1
     9    3    5 1
    10    3   17 1
    11    5    6 1
    12    5   27 1
    13    5   28 1
    14    6    7 1
    15    6    8 1
    16    6   44 1
    17    7   29 1
    18    7   30 1
    19    8    9 1
    20    8   31 1
    21    8   32 1
    22    9   10 2
    23    9   11 am
    24   11   12 1
    25   11   33 1
    26   12   13 1
    27   12   34 1
    28   12   35 1
    29   13   14 1
    30   13   15 1
    31   13   16 1
    32   17   18 2
    33   17   19 am
    34   19   20 1
    35   19   36 1
    36   20   21 1
    37   20   37 1
    38   20   38 1
    39   21   22 1
    40   21   39 1
    41   21   40 1
    42   22   41 1
    43   22   42 1
    44   22   43 1
@<TRIPOS>MOLECULE
ZINC03705360
   36    36     0     0     0
SMALL
USER_CHARGES
1-(2-methyl-5-tert-butyl-phenyl)ethanamine
@<TRIPOS>ATOM
      1 C1         -6.1502   -0.4209    1.3072 C.3       1 <0>        -0.1302
      2 C2         -4.7364    0.1007    1.2975 C.ar      1 <0>        -0.0585
      3 C3         -4.5022    1.4633    1.3035 C.ar      1 <0>        -0.1003
      4 C4         -3.2055    1.9416    1.2981 C.ar      1 <0>        -0.0939
      5 C5         -2.1426    1.0576    1.2775 C.ar      1 <0>        -0.0513
      6 C6         -2.3767   -0.3045    1.2724 C.ar      1 <0>        -0.1272
      7 C7         -3.6738   -0.7831    1.2822 C.ar      1 <0>        -0.1416
      8 C8         -3.9291   -2.2683    1.2757 C.3       1 <0>         0.0855
      9 H1         -4.7729   -2.4891    0.6220 H         1 <0>         0.1480
     10 C9         -4.2484   -2.7371    2.6966 C.3       1 <0>        -0.1786
     11 C10        -0.7288    1.5792    1.2668 C.3       1 <0>        -0.0348
     12 C11        -0.0127    1.0858    0.0080 C.3       1 <0>        -0.1399
     13 C12         0.0111    1.0724    2.5063 C.3       1 <0>        -0.1406
     14 C13        -0.7496    3.1091    1.2752 C.3       1 <0>        -0.1522
     15 H2         -6.4817   -0.5532    2.3371 H         1 <0>         0.0827
     16 H3         -6.8038    0.2915    0.8038 H         1 <0>         0.0807
     17 H4         -6.1878   -1.3784    0.7876 H         1 <0>         0.0671
     18 H5         -5.3325    2.1538    1.3151 H         1 <0>         0.1363
     19 H6         -3.0225    3.0060    1.3066 H         1 <0>         0.1396
     20 H7         -1.5465   -0.9951    1.2605 H         1 <0>         0.1145
     21 H8         -5.1351   -2.2177    3.0599 H         1 <0>         0.1078
     22 H9         -4.4330   -3.8114    2.6919 H         1 <0>         0.0860
     23 H10        -3.4046   -2.5164    3.3503 H         1 <0>         0.0831
     24 H11        -1.9373   -2.7796    1.3757 H         1 <0>         0.4335
     25 H12        -2.9015   -3.9605    0.7111 H         1 <0>         0.4401
     26 H13         0.0021   -0.0041    0.0020 H         1 <0>         0.0497
     27 H14         1.0099    1.4631    0.0003 H         1 <0>         0.0678
     28 H15        -0.5399    1.4469   -0.8751 H         1 <0>         0.0602
     29 H16         1.0337    1.4497    2.4986 H         1 <0>         0.0674
     30 H17        -0.4990    1.4239    3.4031 H         1 <0>         0.0604
     31 H18         0.0259   -0.0175    2.5003 H         1 <0>         0.0511
     32 H19        -1.2768    3.4701    0.3922 H         1 <0>         0.0623
     33 H20        -1.2598    3.4606    2.1720 H         1 <0>         0.0625
     34 H21         0.2730    3.4864    1.2675 H         1 <0>         0.0670
     35 N1         -2.7316   -2.9575    0.7633 N.4       1 <0>        -0.6464
     36 H22        -2.5156   -2.6050   -0.1766 H         1 <0>         0.4420
@<TRIPOS>BOND
     1    1    2 1
     2    1   15 1
     3    1   16 1
     4    1   17 1
     5    2    7 ar
     6    2    3 ar
     7    3    4 ar
     8    3   18 1
     9    4    5 ar
    10    4   19 1
    11    5    6 ar
    12    5   11 1
    13    6    7 ar
    14    6   20 1
    15    7    8 1
    16    8    9 1
    17    8   10 1
    18    8   35 1
    19   10   21 1
    20   10   22 1
    21   10   23 1
    22   11   12 1
    23   11   13 1
    24   11   14 1
    25   12   26 1
    26   12   27 1
    27   12   28 1
    28   13   29 1
    29   13   30 1
    30   13   31 1
    31   14   32 1
    32   14   33 1
    33   14   34 1
    34   24   35 1
    35   25   35 1
    36   35   36 1
@<TRIPOS>MOLECULE
ZINC17021973
   25    25     0     0     0
SMALL
USER_CHARGES
N'-cyclopentyl-2-sulfanyl-acetamidine
@<TRIPOS>ATOM
      1 C1         -1.5345    2.8481    0.7279 C.3       1 <0>        -0.1357
      2 C2         -1.9744    2.4172   -0.6934 C.3       1 <0>        -0.1292
      3 C3         -0.7782    1.6036   -1.2292 C.3       1 <0>        -0.1347
      4 C4         -0.0125    1.0858    0.0009 C.3       1 <0>         0.1159
      5 C5         -0.7690    1.6027    1.2420 C.3       1 <0>        -0.1445
      6 N1          1.3570    1.6060   -0.0048 N.pl3     1 <0>        -0.6290
      7 C6          2.3586    0.7910    0.0678 C.cat     1 <0>         0.5571
      8 C7          2.1222   -0.6971    0.0462 C.3       1 <0>        -0.0978
      9 S1          3.6947   -1.5630    0.3068 S.3       1 <0>        -0.1052
     10 N2          3.6344    1.2807    0.1642 N.pl3     1 <0>        -0.8014
     11 H1         -2.3868    3.0545    1.3919 H         1 <0>         0.0828
     12 H2         -0.8586    3.7159    0.7184 H         1 <0>         0.0699
     13 H3         -2.8893    1.8103   -0.6258 H         1 <0>         0.0802
     14 H4         -2.1717    3.3113   -1.3030 H         1 <0>         0.0808
     15 H5         -1.1480    0.7679   -1.8414 H         1 <0>         0.0935
     16 H6         -0.1386    2.2537   -1.8443 H         1 <0>         0.0849
     17 H7          0.0950   -0.0089   -0.0028 H         1 <0>         0.1123
     18 H8         -0.0836    1.9009    2.0490 H         1 <0>         0.0835
     19 H9         -1.4874    0.8632    1.6256 H         1 <0>         0.1001
     20 H10         1.4175   -0.9680    0.8462 H         1 <0>         0.1492
     21 H11         1.7008   -0.9873   -0.9275 H         1 <0>         0.1521
     22 H12         3.7210   -2.6626    0.3229 H         1 <0>         0.0238
     23 H13         4.4864    0.5876    0.2260 H         1 <0>         0.4753
     24 H14         3.8068    2.3670    0.1799 H         1 <0>         0.4562
     25 H15         1.5334    2.6897   -0.0708 H         1 <0>         0.4600
@<TRIPOS>BOND
     1    1    5 1
     2    1    2 1
     3    1   11 1
     4    1   12 1
     5    2    3 1
     6    2   13 1
     7    2   14 1
     8    3    4 1
     9    3   15 1
    10    3   16 1
    11    4    5 1
    12    4    6 1
    13    4   17 1
    14    5   18 1
    15    5   19 1
    16    6    7 2
    17    6   25 1
    18    7    8 1
    19    7   10 1
    20    8    9 1
    21    8   20 1
    22    8   21 1
    23    9   22 1
    24   10   23 1
    25   10   24 1
@<TRIPOS>MOLECULE
ZINC38343296
   36    37     0     0     0
SMALL
USER_CHARGES

@<TRIPOS>ATOM
      1 C1         -0.0187    1.5258    0.0104 C.3       1 <0>        -0.1548
      2 C2          0.0021   -0.0041    0.0020 C.3       1 <0>        -0.1285
      3 C3          0.7182   -0.4975   -1.2568 C.3       1 <0>         0.0914
      4 N1          0.7378   -1.9434   -1.2647 N.3       1 <0>        -0.5892
      5 C4         -0.5417   -2.6106   -1.0879 C.3       1 <0>         0.1203
      6 H1         -1.1369   -2.0789   -0.3419 H         1 <0>         0.1017
      7 C5         -0.2792   -4.0355   -0.5751 C.3       1 <0>        -0.1194
      8 C6          0.6134   -4.7773   -1.5718 C.3       1 <0>        -0.1207
      9 C7          1.9104   -3.9986   -1.7994 C.3       1 <0>        -0.1194
     10 C8          1.5731   -2.5757   -2.2726 C.3       1 <0>         0.1269
     11 H2          2.5056   -2.0180   -2.3846 H         1 <0>         0.0965
     12 C9          0.8704   -2.6591   -3.6234 C.3       1 <0>        -0.1773
     13 C10        -0.5481   -2.1038   -3.5646 C.3       1 <0>         0.0424
     14 C11        -1.3264   -2.6920   -2.3930 C.3       1 <0>        -0.1771
     15 N2         -1.2460   -2.4522   -4.8196 N.4       1 <0>        -0.6425
     16 H3          1.0039    1.9031    0.0027 H         1 <0>         0.0592
     17 H4         -0.5459    1.8868   -0.8726 H         1 <0>         0.0514
     18 H5         -0.5289    1.8773    0.9072 H         1 <0>         0.0627
     19 H6          0.5293   -0.3651    0.8851 H         1 <0>         0.0767
     20 H7         -1.0205   -0.3814    0.0098 H         1 <0>         0.0619
     21 H8          0.1910   -0.1364   -2.1398 H         1 <0>         0.0215
     22 H9          1.7408   -0.1202   -1.2645 H         1 <0>         0.0820
     23 H10         0.2173   -3.9807    0.3926 H         1 <0>         0.0819
     24 H11        -1.2290   -4.5583   -0.4726 H         1 <0>         0.0716
     25 H12         0.8529   -5.7666   -1.1734 H         1 <0>         0.0711
     26 H13         0.0862   -4.8978   -2.5183 H         1 <0>         0.0513
     27 H14         2.4730   -3.9412   -0.8688 H         1 <0>         0.0822
     28 H15         2.5088   -4.4955   -2.5617 H         1 <0>         0.0721
     29 H16         1.4483   -2.0915   -4.3618 H         1 <0>         0.0894
     30 H17         0.8390   -3.7026   -3.9516 H         1 <0>         0.0928
     31 H18        -0.5245   -1.0152   -3.4932 H         1 <0>         0.1378
     32 H19        -1.5690   -3.7377   -2.6056 H         1 <0>         0.0926
     33 H20        -2.2689   -2.1447   -2.2768 H         1 <0>         0.0888
     34 H21        -1.2748   -3.4557   -4.9210 H         1 <0>         0.4312
     35 H22        -2.1872   -2.0897   -4.7928 H         1 <0>         0.4356
     36 H23        -0.7524   -2.0491   -5.6019 H         1 <0>         0.4357
@<TRIPOS>BOND
     1    1    2 1
     2    1   16 1
     3    1   17 1
     4    1   18 1
     5    2    3 1
     6    2   19 1
     7    2   20 1
     8    3    4 1
     9    3   21 1
    10    3   22 1
    11    4   10 1
    12    4    5 1
    13    5    6 1
    14    5   14 1
    15    5    7 1
    16    7    8 1
    17    7   23 1
    18    7   24 1
    19    8    9 1
    20    8   25 1
    21    8   26 1
    22    9   10 1
    23    9   27 1
    24    9   28 1
    25   10   11 1
    26   10   12 1
    27   12   13 1
    28   12   29 1
    29   12   30 1
    30   13   14 1
    31   13   15 1
    32   13   31 1
    33   14   32 1
    34   14   33 1
    35   15   34 1
    36   15   35 1
    37   15   36 1
@<TRIPOS>MOLECULE
ZINC52209420
   35    36     0     0     0
SMALL
USER_CHARGES

@<TRIPOS>ATOM
      1 C1         -0.0188    1.5382    0.0105 C.3       1 <0>        -0.1284
      2 C2          1.4013    2.0356   -0.0004 C.3       1 <0>        -0.1205
      3 C3          1.9100    2.3353   -1.4234 C.3       1 <0>        -0.1368
      4 C4          1.4803    1.2685   -2.4486 C.3       1 <0>         0.0416
      5 H1          0.4441    1.4504   -2.7335 H         1 <0>         0.1385
      6 C5          1.5981   -0.1306   -1.9073 C.3       1 <0>         0.0841
      7 H2          2.3523   -0.1567   -1.1208 H         1 <0>         0.0902
      8 C6          0.2309   -0.5484   -1.3282 C.3       1 <0>        -0.1440
      9 C7          0.0021   -0.0041    0.0020 C.3       1 <0>        -0.1321
     10 O1          1.9708   -1.0226   -2.9596 O.3       1 <0>        -0.5872
     11 N1          2.3287    1.3873   -3.6420 N.4       1 <0>        -0.4931
     12 C8          2.0819    2.6817   -4.2913 C.3       1 <0>        -0.0156
     13 C9          0.9217    2.6534   -5.3003 C.3       1 <0>        -0.1478
     14 C10         1.7850    3.5548   -6.1988 C.3       1 <0>        -0.1349
     15 C11         3.0101    2.9586   -5.4857 C.3       1 <0>        -0.1483
     16 H3         -0.5241    1.8926    0.9090 H         1 <0>         0.0809
     17 H4         -0.5411    1.9022   -0.8743 H         1 <0>         0.0668
     18 H5          1.4602    2.9471    0.5945 H         1 <0>         0.0844
     19 H6          2.0432    1.2796    0.4517 H         1 <0>         0.0748
     20 H7          1.5208    3.3032   -1.7393 H         1 <0>         0.0920
     21 H8          2.9987    2.3860   -1.4041 H         1 <0>         0.0854
     22 H9         -0.5570   -0.1963   -1.9941 H         1 <0>         0.0754
     23 H10         0.1870   -1.6363   -1.2768 H         1 <0>         0.0851
     24 H11         0.7942   -0.3500    0.6661 H         1 <0>         0.0708
     25 H12        -0.9540   -0.3721    0.3744 H         1 <0>         0.0782
     26 H13         2.0646   -1.9435   -2.6798 H         1 <0>         0.4153
     27 H14         3.2990    1.3258   -3.3723 H         1 <0>         0.4238
     28 H15         2.0253    3.5072   -3.5818 H         1 <0>         0.1590
     29 H16         0.7346    1.6663   -5.7230 H         1 <0>         0.1041
     30 H17         0.0155    3.1383   -4.9373 H         1 <0>         0.0994
     31 H18         1.7284    3.2992   -7.2569 H         1 <0>         0.0961
     32 H19         1.6461    4.6195   -6.0115 H         1 <0>         0.1013
     33 H20         3.7899    3.6897   -5.2724 H         1 <0>         0.1017
     34 H21         3.3939    2.0549   -5.9591 H         1 <0>         0.1044
     35 H22         2.1105    0.6412   -4.2853 H         1 <0>         0.4354
@<TRIPOS>BOND
     1    1    9 1
     2    1    2 1
     3    1   16 1
     4    1   17 1
     5    2    3 1
     6    2   18 1
     7    2   19 1
     8    3    4 1
     9    3   20 1
    10    3   21 1
    11    4    5 1
    12    4    6 1
    13    4   11 1
    14    6    7 1
    15    6    8 1
    16    6   10 1
    17    8    9 1
    18    8   22 1
    19    8   23 1
    20    9   24 1
    21    9   25 1
    22   10   26 1
    23   11   12 1
    24   11   27 1
    25   11   35 1
    26   12   15 1
    27   12   13 1
    28   12   28 1
    29   13   14 1
    30   13   29 1
    31   13   30 1
    32   14   15 1
    33   14   31 1
    34   14   32 1
    35   15   33 1
    36   15   34 1
@<TRIPOS>MOLECULE
ZINC52126085
   31    32     0     0     0
SMALL
USER_CHARGES

@<TRIPOS>ATOM
      1 C1         -0.0184    1.5028    0.0103 C.3       1 <0>        -0.1273
      2 C2          0.0021   -0.0041    0.0020 C.ar      1 <0>        -0.0687
      3 C3          0.0057   -0.6888   -1.1991 C.ar      1 <0>        -0.1089
      4 C4          0.0245   -2.0707   -1.2067 C.ar      1 <0>        -0.1219
      5 C5          0.0400   -2.7685   -0.0132 C.ar      1 <0>        -0.0810
      6 C6          0.0373   -2.0840    1.1875 C.ar      1 <0>        -0.0992
      7 C7          0.0229   -0.7015    1.1951 C.ar      1 <0>        -0.0740
      8 C8          0.0252    0.0449    2.5043 C.3       1 <0>        -0.1252
      9 C9          0.0595   -4.2753   -0.0215 C.3       1 <0>        -0.0431
     10 C10        -1.1978   -4.9953   -0.5131 C.3       1 <0>        -0.1396
     11 C11         0.0610   -4.9743   -1.3825 C.3       1 <0>        -0.0812
     12 H1          0.0480   -4.3443   -2.2718 H         1 <0>         0.1818
     13 N1          0.8236   -6.2242   -1.5022 N.4       1 <0>        -0.6051
     14 C12         0.8527   -4.9313    1.1105 C.3       1 <0>        -0.1470
     15 H2          1.0042    1.8801    0.0026 H         1 <0>         0.0780
     16 H3         -0.5455    1.8639   -0.8728 H         1 <0>         0.0721
     17 H4         -0.5286    1.8543    0.9071 H         1 <0>         0.0749
     18 H5         -0.0064   -0.1437   -2.1314 H         1 <0>         0.1295
     19 H6          0.0266   -2.6056   -2.1449 H         1 <0>         0.1179
     20 H7          0.0491   -2.6290    2.1199 H         1 <0>         0.1278
     21 H8         -1.0017    0.2110    2.8297 H         1 <0>         0.0775
     22 H9          0.5542   -0.5412    3.2558 H         1 <0>         0.0703
     23 H10         0.5249    1.0049    2.3743 H         1 <0>         0.0753
     24 H11        -1.4602   -5.9366   -0.0300 H         1 <0>         0.1274
     25 H12        -2.0390   -4.3791   -0.8306 H         1 <0>         0.1358
     26 H13         0.4579   -6.9048   -0.8533 H         1 <0>         0.4327
     27 H14         0.7423   -6.5790   -2.4432 H         1 <0>         0.4416
     28 H15         0.7613   -4.3292    2.0146 H         1 <0>         0.0962
     29 H16         0.4596   -5.9304    1.2981 H         1 <0>         0.0713
     30 H17         1.9024   -5.0015    0.8254 H         1 <0>         0.0750
     31 H18         1.7945   -6.0472   -1.2922 H         1 <0>         0.4369
@<TRIPOS>BOND
     1    1    2 1
     2    1   15 1
     3    1   16 1
     4    1   17 1
     5    2    7 ar
     6    2    3 ar
     7    3    4 ar
     8    3   18 1
     9    4    5 ar
    10    4   19 1
    11    5    6 ar
    12    5    9 1
    13    6    7 ar
    14    6   20 1
    15    7    8 1
    16    8   21 1
    17    8   22 1
    18    8   23 1
    19    9   11 1
    20    9   10 1
    21    9   14 1
    22   10   11 1
    23   10   24 1
    24   10   25 1
    25   11   12 1
    26   11   13 1
    27   13   26 1
    28   13   27 1
    29   13   31 1
    30   14   28 1
    31   14   29 1
    32   14   30 1
@<TRIPOS>MOLECULE
ZINC06779967
   50    54     0     0     0
SMALL
USER_CHARGES
N-[5-[(4-hydroxyphenyl)methylene]-4-oxo-2-thioxo-thiazolidin-3-yl]adamantane-1-carboxamide
@<TRIPOS>ATOM
      1 C1          3.7890    1.3914    0.9001 C.ar      1 <0>        -0.0247
      2 C2          2.6697    0.5900    0.9107 C.ar      1 <0>        -0.1541
      3 C3          1.6316    0.8296    0.0177 C.ar      1 <0>         0.1397
      4 C4          1.7199    1.8748   -0.8945 C.ar      1 <0>        -0.1583
      5 C5          2.8322    2.6857   -0.9105 C.ar      1 <0>        -0.0585
      6 C6          3.8808    2.4493   -0.0129 C.ar      1 <0>        -0.1208
      7 C7          5.0720    3.3078   -0.0286 C.2       1 <0>         0.1095
      8 C8          5.6565    3.6790    1.1389 C.2       1 <0>        -0.2493
      9 C9          5.1965    3.4779    2.5276 C.2       1 <0>         0.5406
     10 O1          4.1517    2.9062    2.7785 O.2       1 <0>        -0.4389
     11 N1          5.9773    3.9501    3.4847 N.am      1 <0>        -0.3255
     12 C10         7.1342    4.5830    3.2022 C.2       1 <0>         0.2674
     13 S1          8.2698    5.2584    4.2908 S.2       1 <0>        -0.2880
     14 S2          7.1987    4.5389    1.4184 S.3       1 <0>         0.0986
     15 N2          5.5938    3.7895    4.8226 N.am      1 <0>        -0.5239
     16 C11         6.2078    2.8707    5.5940 C.2       1 <0>         0.5379
     17 O2          7.0924    2.1828    5.1301 O.2       1 <0>        -0.5036
     18 C12         5.7953    2.6980    7.0332 C.3       1 <0>        -0.0505
     19 C13         6.0068    4.0132    7.7857 C.3       1 <0>        -0.1029
     20 C14         5.5880    3.8379    9.2467 C.3       1 <0>        -0.0832
     21 H1          5.7386    4.7749    9.7828 H         1 <0>         0.0786
     22 C15         6.4352    2.7393    9.8918 C.3       1 <0>        -0.1114
     23 C16         6.2237    1.4241    9.1393 C.3       1 <0>        -0.0853
     24 H2          6.8273    0.6414    9.5989 H         1 <0>         0.0779
     25 C17         6.6425    1.5994    7.6783 C.3       1 <0>        -0.0883
     26 C18         4.7461    1.0321    9.2028 C.3       1 <0>        -0.1114
     27 C19         3.8989    2.1307    8.5577 C.3       1 <0>        -0.0827
     28 H3          2.8462    1.8514    8.6029 H         1 <0>         0.0771
     29 C20         4.1104    3.4459    9.3102 C.3       1 <0>        -0.1112
     30 C21         4.3177    2.3060    7.0966 C.3       1 <0>        -0.1028
     31 O3          0.5299    0.0363    0.0328 O.3       1 <0>        -0.4982
     32 H4          4.5946    1.2048    1.5948 H         1 <0>         0.1255
     33 H5          2.5978   -0.2262    1.6143 H         1 <0>         0.1333
     34 H6          0.9125    2.0535   -1.5893 H         1 <0>         0.1367
     35 H7          2.8977    3.5005   -1.6165 H         1 <0>         0.1369
     36 H8          5.4831    3.6439   -0.9691 H         1 <0>         0.1657
     37 H9          4.8863    4.3397    5.1937 H         1 <0>         0.4286
     38 H10         7.0594    4.2925    7.7405 H         1 <0>         0.0780
     39 H11         5.4032    4.7959    7.3261 H         1 <0>         0.0664
     40 H12         6.1368    2.6144   10.9327 H         1 <0>         0.0669
     41 H13         7.4879    3.0186    9.8466 H         1 <0>         0.0658
     42 H14         6.4919    0.6624    7.1421 H         1 <0>         0.0707
     43 H15         7.6952    1.8786    7.6330 H         1 <0>         0.0745
     44 H16         4.5955    0.0951    8.6667 H         1 <0>         0.0638
     45 H17         4.4478    0.9072   10.2437 H         1 <0>         0.0673
     46 H18         3.8120    3.3210   10.3511 H         1 <0>         0.0679
     47 H19         3.5068    4.2286    8.8506 H         1 <0>         0.0638
     48 H20         3.7141    3.0887    6.6370 H         1 <0>         0.0665
     49 H21         4.1670    1.3690    6.5605 H         1 <0>         0.0708
     50 H22        -0.1697    0.3461    0.6242 H         1 <0>         0.3972
@<TRIPOS>BOND
     1    1    6 ar
     2    1    2 ar
     3    1   32 1
     4    2    3 ar
     5    2   33 1
     6    3    4 ar
     7    3   31 1
     8    4    5 ar
     9    4   34 1
    10    5    6 ar
    11    5   35 1
    12    6    7 1
    13    7    8 2
    14    7   36 1
    15    8   14 1
    16    8    9 1
    17    9   10 2
    18    9   11 am
    19   11   12 1
    20   11   15 1
    21   12   13 2
    22   12   14 1
    23   15   16 am
    24   15   37 1
    25   16   17 2
    26   16   18 1
    27   18   25 1
    28   18   30 1
    29   18   19 1
    30   19   20 1
    31   19   38 1
    32   19   39 1
    33   20   21 1
    34   20   29 1
    35   20   22 1
    36   22   23 1
    37   22   40 1
    38   22   41 1
    39   23   24 1
    40   23   25 1
    41   23   26 1
    42   25   42 1
    43   25   43 1
    44   26   27 1
    45   26   44 1
    46   26   45 1
    47   27   28 1
    48   27   29 1
    49   27   30 1
    50   29   46 1
    51   29   47 1
    52   30   48 1
    53   30   49 1
    54   31   50 1
@<TRIPOS>MOLECULE
ZINC14270065
   37    38     0     0     0
SMALL
USER_CHARGES
N-[(4-bromo-2-methyl-phenyl)carbamothioyl]-2,3,5,6-tetrafluoro-4-methoxy-benzamide
@<TRIPOS>ATOM
      1 C1          0.8426    3.0158   -1.6761 C.3       1 <0>        -0.1189
      2 C2          1.0235    1.8102   -0.7901 C.ar      1 <0>        -0.0745
      3 C3          2.2247    1.1282   -0.7875 C.ar      1 <0>        -0.0901
      4 C4          2.3912    0.0212    0.0252 C.ar      1 <0>        -0.0736
      5 C5          1.3556   -0.4061    0.8376 C.ar      1 <0>        -0.0904
      6 C6          0.1527    0.2718    0.8390 C.ar      1 <0>        -0.0562
      7 C7         -0.0174    1.3837    0.0240 C.ar      1 <0>         0.1257
      8 N1         -1.2371    2.0691    0.0192 N.pl3     1 <0>        -0.6161
      9 C8         -2.3941    1.3851   -0.0808 C.2       1 <0>         0.5074
     10 S1         -2.3783   -0.3268   -0.0904 S.2       1 <0>        -0.4631
     11 N2         -3.5634    2.0488   -0.1732 N.am      1 <0>        -0.6333
     12 C9         -4.7204    1.3648   -0.2731 C.2       1 <0>         0.5486
     13 O1         -4.7092    0.1490   -0.2800 O.2       1 <0>        -0.3619
     14 C10        -5.9978    2.0898   -0.3740 C.ar      1 <0>        -0.1608
     15 C11        -6.5052    2.4488   -1.6295 C.ar      1 <0>         0.1437
     16 C12        -7.7067    3.1241   -1.7184 C.ar      1 <0>         0.0753
     17 C13        -8.4069    3.4575   -0.5644 C.ar      1 <0>         0.1122
     18 C14        -7.9054    3.1084    0.6847 C.ar      1 <0>         0.0752
     19 C15        -6.7076    2.4283    0.7853 C.ar      1 <0>         0.1438
     20 F1         -6.2211    2.0905    1.9996 F         1 <0>        -0.0948
     21 F2         -8.5910    3.4355    1.8019 F         1 <0>        -0.0955
     22 O2         -9.5853    4.1262   -0.6574 O.3       1 <0>        -0.3074
     23 C16        -9.5239    5.5538   -0.6428 C.3       1 <0>         0.0279
     24 F3         -8.1997    3.4664   -2.9288 F         1 <0>        -0.0955
     25 F4         -5.8229    2.1308   -2.7514 F         1 <0>        -0.0947
     26 Br1         4.0374   -0.9095    0.0265 Br        1 <0>        -0.0433
     27 H1          1.1414    3.9131   -1.1341 H         1 <0>         0.0778
     28 H2          1.4601    2.9074   -2.5677 H         1 <0>         0.0794
     29 H3         -0.2045    3.0989   -1.9672 H         1 <0>         0.0635
     30 H4          3.0346    1.4596   -1.4205 H         1 <0>         0.1395
     31 H5          1.4883   -1.2709    1.4709 H         1 <0>         0.1408
     32 H6         -0.6553   -0.0623    1.4730 H         1 <0>         0.1521
     33 H7         -1.2500    3.0366    0.0877 H         1 <0>         0.4100
     34 H8         -3.5724    3.0188   -0.1677 H         1 <0>         0.4146
     35 H9         -9.0702    5.8885    0.2901 H         1 <0>         0.0593
     36 H10        -8.9233    5.9004   -1.4838 H         1 <0>         0.0593
     37 H11       -10.5316    5.9616   -0.7235 H         1 <0>         0.1139
@<TRIPOS>BOND
     1    1    2 1
     2    1   27 1
     3    1   28 1
     4    1   29 1
     5    2    7 ar
     6    2    3 ar
     7    3    4 ar
     8    3   30 1
     9    4    5 ar
    10    4   26 1
    11    5    6 ar
    12    5   31 1
    13    6    7 ar
    14    6   32 1
    15    7    8 1
    16    8    9 1
    17    8   33 1
    18    9   10 2
    19    9   11 1
    20   11   12 am
    21   11   34 1
    22   12   13 2
    23   12   14 1
    24   14   19 ar
    25   14   15 ar
    26   15   16 ar
    27   15   25 1
    28   16   17 ar
    29   16   24 1
    30   17   18 ar
    31   17   22 1
    32   18   19 ar
    33   18   21 1
    34   19   20 1
    35   22   23 1
    36   23   35 1
    37   23   36 1
    38   23   37 1
@<TRIPOS>MOLECULE
ZINC09861226
   51    54     0     0     0
SMALL
USER_CHARGES
(4R)-N-(5-bromo-2-pyridyl)-2,7,7-trimethyl-5-oxo-4-(3-thienyl)-1,4,6,8-tetrahydroquinoline-3-carboxamide
@<TRIPOS>ATOM
      1 C1          3.6070    6.1321   -0.0871 C.3       1 <0>        -0.2243
      2 C2          4.8943    5.3607   -0.2247 C.2       1 <0>         0.2465
      3 C3          4.8683    4.0178   -0.2434 C.2       1 <0>        -0.2844
      4 C4          6.1308    3.2162   -0.3665 C.3       1 <0>         0.0906
      5 H1          5.9509    2.3923   -1.0727 H         1 <0>         0.0809
      6 C5          7.2607    4.0676   -0.8937 C.2       1 <0>        -0.2789
      7 C6          7.1901    5.4147   -0.8407 C.2       1 <0>         0.2245
      8 N1          6.0809    6.0327   -0.3292 N.pl3     1 <0>        -0.6474
      9 C7          8.3275    6.2723   -1.3378 C.3       1 <0>        -0.0919
     10 C8          9.0451    5.5583   -2.4854 C.3       1 <0>        -0.0507
     11 C9          9.5500    4.2044   -1.9759 C.3       1 <0>        -0.1611
     12 C10         8.3871    3.4208   -1.4312 C.2       1 <0>         0.4064
     13 O1          8.4223    2.2065   -1.4559 O.2       1 <0>        -0.4700
     14 C11         8.0705    5.3402   -3.6446 C.3       1 <0>        -0.1537
     15 C12        10.2266    6.4067   -2.9600 C.3       1 <0>        -0.1440
     16 C13         6.5055    2.6719    0.9879 C.2       1 <0>        -0.1097
     17 C14         6.5972    1.3083    1.1951 C.2       1 <0>        -0.1565
     18 C15         6.9419    0.8519    2.4239 C.2       1 <0>        -0.1641
     19 S1          7.1361    2.3712    3.3411 S.3       1 <0>         0.0319
     20 C16         6.7521    3.5120    2.0226 C.2       1 <0>        -0.1591
     21 C17         3.6261    3.3455   -0.1391 C.2       1 <0>         0.5796
     22 O2          2.5879    3.9816   -0.1375 O.2       1 <0>        -0.4753
     23 N2          3.5932    2.0017   -0.0418 N.am      1 <0>        -0.6669
     24 C18         2.3711    1.3326   -0.0464 C.ar      1 <0>         0.3838
     25 C19         2.3472   -0.0578   -0.0551 C.ar      1 <0>        -0.2062
     26 C20         1.1271   -0.7099   -0.0592 C.ar      1 <0>        -0.0158
     27 C21        -0.0329    0.0546   -0.0549 C.ar      1 <0>        -0.1854
     28 C22         0.0657    1.4325   -0.0468 C.ar      1 <0>         0.1695
     29 N3          1.2439    2.0263   -0.0426 N.ar      1 <0>        -0.4689
     30 Br1        -1.7287   -0.7821   -0.0608 Br        1 <0>        -0.0365
     31 H2          2.7640    5.4290   -0.0165 H         1 <0>         0.1899
     32 H3          3.4718    6.7796   -0.9660 H         1 <0>         0.0760
     33 H4          3.6456    6.7507    0.8216 H         1 <0>         0.0705
     34 H5          6.1506    7.0802   -0.0006 H         1 <0>         0.4434
     35 H6          7.9320    7.2342   -1.6961 H         1 <0>         0.0927
     36 H7          9.0379    6.4508   -0.5172 H         1 <0>         0.1005
     37 H8         10.0143    3.6506   -2.8052 H         1 <0>         0.0978
     38 H9         10.2932    4.3657   -1.1811 H         1 <0>         0.1005
     39 H10         8.5889    4.8269   -4.4679 H         1 <0>         0.0639
     40 H11         7.6961    6.3127   -3.9968 H         1 <0>         0.0610
     41 H12         7.2258    4.7242   -3.3025 H         1 <0>         0.0596
     42 H13        10.7404    5.8911   -3.7847 H         1 <0>         0.0651
     43 H14        10.9290    6.5559   -2.1267 H         1 <0>         0.0613
     44 H15         9.8598    7.3830   -3.3098 H         1 <0>         0.0622
     45 H16         6.4010    0.6171    0.3888 H         1 <0>         0.1334
     46 H17         7.0637   -0.1667    2.7616 H         1 <0>         0.1865
     47 H18         6.7234    4.5914    2.0440 H         1 <0>         0.1731
     48 H19         4.5312    1.4331    0.0412 H         1 <0>         0.4414
     49 H20         3.2687   -0.6210   -0.0582 H         1 <0>         0.1435
     50 H21         1.0775   -1.7888   -0.0611 H         1 <0>         0.1476
     51 H22        -0.8331    2.0313   -0.0434 H         1 <0>         0.1672
@<TRIPOS>BOND
     1    1    2 1
     2    1   31 1
     3    1   32 1
     4    1   33 1
     5    2    8 1
     6    2    3 2
     7    3    4 1
     8    3   21 1
     9    4    5 1
    10    4    6 1
    11    4   16 1
    12    6   12 1
    13    6    7 2
    14    7    8 1
    15    7    9 1
    16    8   34 1
    17    9   10 1
    18    9   35 1
    19    9   36 1
    20   10   11 1
    21   10   14 1
    22   10   15 1
    23   11   12 1
    24   11   37 1
    25   11   38 1
    26   12   13 2
    27   14   39 1
    28   14   40 1
    29   14   41 1
    30   15   42 1
    31   15   43 1
    32   15   44 1
    33   16   20 2
    34   16   17 1
    35   17   18 2
    36   17   45 1
    37   18   19 1
    38   18   46 1
    39   19   20 1
    40   20   47 1
    41   21   22 2
    42   21   23 am
    43   23   24 1
    44   23   48 1
    45   24   29 ar
    46   24   25 ar
    47   25   26 ar
    48   25   49 1
    49   26   27 ar
    50   26   50 1
    51   27   28 ar
    52   27   30 1
    53   28   29 ar
    54   28   51 1
@<TRIPOS>MOLECULE
ZINC39495642
   35    36     0     0     0
SMALL
USER_CHARGES

@<TRIPOS>ATOM
      1 C1         -0.0166    1.3759    0.0096 C.ar      1 <0>        -0.1207
      2 C2          1.1693    2.0890    0.0021 C.ar      1 <0>        -0.0895
      3 C3          2.3816    1.4258   -0.0134 C.ar      1 <0>        -0.1419
      4 C4          2.4150    0.0405   -0.0211 C.ar      1 <0>         0.1274
      5 C5          1.2186   -0.6826   -0.0131 C.ar      1 <0>        -0.0922
      6 C6          0.0021   -0.0041    0.0020 C.ar      1 <0>        -0.0826
      7 C7          1.2444   -2.1655   -0.0218 C.ar      1 <0>        -0.0530
      8 C8          1.2629   -2.8719    1.1794 C.ar      1 <0>        -0.0402
      9 C9          1.2869   -4.2517    1.1660 C.ar      1 <0>        -0.1222
     10 C10         1.2931   -4.9356   -0.0366 C.ar      1 <0>        -0.0477
     11 C11         1.2752   -4.2419   -1.2332 C.ar      1 <0>        -0.1422
     12 C12         1.2443   -2.8591   -1.2326 C.ar      1 <0>         0.1599
     13 F1          1.2204   -2.1816   -2.4012 F         1 <0>        -0.1133
     14 I1          1.2861   -5.2874   -3.0486 I         1 <0>        -0.0076
     15 C13         1.2573   -2.1301    2.4911 C.3       1 <0>         0.1912
     16 H1          1.8305   -1.2085    2.3898 H         1 <0>         0.1058
     17 C14        -0.1836   -1.7942    2.8809 C.3       1 <0>        -0.2026
     18 C15        -0.1823   -0.9472    4.1274 C.2       1 <0>         0.3516
     19 O1         -0.7463    0.1206    4.1324 O.2       1 <0>        -0.4542
     20 N1          1.8611   -2.9691    3.5293 N.am      1 <0>        -0.7355
     21 C16         2.4239   -2.3994    4.6133 C.2       1 <0>         0.4894
     22 O2          2.4304   -1.1922    4.7295 O.2       1 <0>        -0.5441
     23 O3          3.6062   -0.6126   -0.0369 O.3       1 <0>        -0.4907
     24 H2         -0.9602    1.9011    0.0259 H         1 <0>         0.1317
     25 H3          1.1473    3.1687    0.0081 H         1 <0>         0.1317
     26 H4          3.3039    1.9877   -0.0199 H         1 <0>         0.1340
     27 H5         -0.9254   -0.5573    0.0082 H         1 <0>         0.1284
     28 H6          1.3013   -4.7991    2.0969 H         1 <0>         0.1404
     29 H7          1.3122   -6.0154   -0.0411 H         1 <0>         0.1451
     30 H8         -0.6610   -1.2454    2.0692 H         1 <0>         0.1007
     31 H9         -0.7335   -2.7163    3.0688 H         1 <0>         0.1062
     32 H10         0.3230   -1.2952    5.0162 H         1 <0>         0.0968
     33 H11         1.8559   -3.9346    3.4364 H         1 <0>         0.4062
     34 H12         2.8690   -3.0180    5.3787 H         1 <0>         0.1448
     35 H13         3.9601   -0.8063    0.8419 H         1 <0>         0.3891
@<TRIPOS>BOND
     1    1    6 ar
     2    1    2 ar
     3    1   24 1
     4    2    3 ar
     5    2   25 1
     6    3    4 ar
     7    3   26 1
     8    4    5 ar
     9    4   23 1
    10    5    6 ar
    11    5    7 1
    12    6   27 1
    13    7   12 ar
    14    7    8 ar
    15    8    9 ar
    16    8   15 1
    17    9   10 ar
    18    9   28 1
    19   10   11 ar
    20   10   29 1
    21   11   12 ar
    22   11   14 1
    23   12   13 1
    24   15   16 1
    25   15   17 1
    26   15   20 1
    27   17   18 1
    28   17   30 1
    29   17   31 1
    30   18   19 2
    31   18   32 1
    32   20   21 am
    33   20   33 1
    34   21   22 2
    35   21   34 1
    36   23   35 1
@<TRIPOS>MOLECULE
ZINC48534580
   60    63     0     0     0
SMALL
USER_CHARGES

@<TRIPOS>ATOM
      1 C1          2.7324    3.8206   -0.4342 C.3       1 <0>        -0.1516
      2 C2          1.8665    2.7438    0.2256 C.3       1 <0>        -0.0489
      3 C3          1.4642    1.6784   -0.7799 C.3       1 <0>        -0.1242
      4 C4          2.5665    0.7045   -1.1726 C.3       1 <0>         0.1627
      5 H1          2.1465   -0.0941   -1.8060 H         1 <0>         0.0907
      6 C5          3.1830    0.0726    0.0847 C.3       1 <0>        -0.1451
      7 H2          2.4140   -0.4836    0.6246 H         1 <0>         0.1157
      8 C6          4.2990   -0.8772   -0.3260 C.3       1 <0>         0.0422
      9 H3          3.8492   -1.7160   -0.8738 H         1 <0>         0.0867
     10 C7          5.2842   -0.1946   -1.2372 C.2       1 <0>        -0.3219
     11 C8          4.9119    0.9094   -1.9310 C.2       1 <0>         0.2642
     12 N1          3.6319    1.3887   -1.9034 N.pl3     1 <0>        -0.7111
     13 C9          5.8932    1.6750   -2.7860 C.3       1 <0>        -0.0944
     14 C10         7.3227    1.4589   -2.2949 C.3       1 <0>        -0.0505
     15 C11         7.6026   -0.0443   -2.2667 C.3       1 <0>        -0.1620
     16 C12         6.5622   -0.7386   -1.4262 C.2       1 <0>         0.4042
     17 O1          6.8726   -1.8187   -0.9594 O.2       1 <0>        -0.4811
     18 C13         8.2997    2.1391   -3.2617 C.3       1 <0>        -0.1433
     19 C14         7.4994    2.0566   -0.8986 C.3       1 <0>        -0.1530
     20 C15         4.9551   -1.4234    0.9159 C.ar      1 <0>        -0.0752
     21 C16         6.0338   -0.7626    1.4738 C.ar      1 <0>        -0.0294
     22 C17         6.6388   -1.2593    2.6131 C.ar      1 <0>        -0.1977
     23 C18         6.1649   -2.4225    3.1989 C.ar      1 <0>         0.1138
     24 C19         5.0796   -3.0881    2.6383 C.ar      1 <0>         0.0731
     25 C20         4.4733   -2.5818    1.4986 C.ar      1 <0>        -0.0210
     26 Cl1         3.1145   -3.4053    0.7992 Cl        1 <0>        -0.0538
     27 O2          4.6110   -4.2300    3.2097 O.3       1 <0>        -0.4735
     28 O3          6.7599   -2.9125    4.3193 O.3       1 <0>        -0.3062
     29 C21         7.8694   -2.1771    4.8392 C.3       1 <0>         0.0256
     30 C22         3.6750    1.2112    0.9436 C.2       1 <0>         0.3751
     31 O4          4.8297    1.3889    1.2222 O.2       1 <0>        -0.4225
     32 C23         2.6036    2.1675    1.4347 C.3       1 <0>        -0.1661
     33 C24         0.5828    3.4281    0.7394 C.3       1 <0>        -0.1471
     34 H4          3.6749    3.3801   -0.7593 H         1 <0>         0.0597
     35 H5          2.2069    4.2316   -1.2962 H         1 <0>         0.0591
     36 H6          2.9317    4.6167    0.2832 H         1 <0>         0.0603
     37 H7          0.6178    1.1072   -0.3683 H         1 <0>         0.0882
     38 H8          1.0910    2.1748   -1.6892 H         1 <0>         0.0792
     39 H9          3.4295    2.1923   -2.4151 H         1 <0>         0.4041
     40 H10         5.8099    1.3351   -3.8205 H         1 <0>         0.0951
     41 H11         5.6528    2.7394   -2.7444 H         1 <0>         0.0866
     42 H12         7.5701   -0.4432   -3.2810 H         1 <0>         0.0932
     43 H13         8.5892   -0.2255   -1.8381 H         1 <0>         0.0917
     44 H14         8.0858    3.2071   -3.3028 H         1 <0>         0.0588
     45 H15         9.3212    1.9863   -2.9134 H         1 <0>         0.0623
     46 H16         8.1865    1.7074   -4.2562 H         1 <0>         0.0581
     47 H17         6.8086    1.5746   -0.2069 H         1 <0>         0.0737
     48 H18         8.5232    1.8952   -0.5612 H         1 <0>         0.0581
     49 H19         7.2925    3.1263   -0.9324 H         1 <0>         0.0559
     50 H20         6.4048    0.1436    1.0182 H         1 <0>         0.1481
     51 H21         7.4813   -0.7410    3.0467 H         1 <0>         0.1327
     52 H22         3.9249   -4.0839    3.8753 H         1 <0>         0.3832
     53 H23         8.6568   -2.1274    4.0871 H         1 <0>         0.0570
     54 H24         7.5480   -1.1677    5.0958 H         1 <0>         0.0554
     55 H25         8.2496   -2.6751    5.7311 H         1 <0>         0.1022
     56 H26         3.0713    2.9732    2.0005 H         1 <0>         0.0898
     57 H27         1.9034    1.6294    2.0730 H         1 <0>         0.0951
     58 H28         0.0527    3.8816   -0.0981 H         1 <0>         0.0596
     59 H29        -0.0581    2.6867    1.2164 H         1 <0>         0.0588
     60 H30         0.8469    4.1995    1.4628 H         1 <0>         0.0598
@<TRIPOS>BOND
     1    1    2 1
     2    1   34 1
     3    1   35 1
     4    1   36 1
     5    2   32 1
     6    2    3 1
     7    2   33 1
     8    3    4 1
     9    3   37 1
    10    3   38 1
    11    4    5 1
    12    4   12 1
    13    4    6 1
    14    6    7 1
    15    6    8 1
    16    6   30 1
    17    8    9 1
    18    8   10 1
    19    8   20 1
    20   10   16 1
    21   10   11 2
    22   11   12 1
    23   11   13 1
    24   12   39 1
    25   13   14 1
    26   13   40 1
    27   13   41 1
    28   14   15 1
    29   14   18 1
    30   14   19 1
    31   15   16 1
    32   15   42 1
    33   15   43 1
    34   16   17 2
    35   18   44 1
    36   18   45 1
    37   18   46 1
    38   19   47 1
    39   19   48 1
    40   19   49 1
    41   20   25 ar
    42   20   21 ar
    43   21   22 ar
    44   21   50 1
    45   22   23 ar
    46   22   51 1
    47   23   24 ar
    48   23   28 1
    49   24   25 ar
    50   24   27 1
    51   25   26 1
    52   27   52 1
    53   28   29 1
    54   29   53 1
    55   29   54 1
    56   29   55 1
    57   30   31 2
    58   30   32 1
    59   32   56 1
    60   32   57 1
    61   33   58 1
    62   33   59 1
    63   33   60 1
@<TRIPOS>MOLECULE
ZINC00544570
   25    26     0     0     0
SMALL
USER_CHARGES
(3R)-3-ethynylquinuclidin-3-ol
@<TRIPOS>ATOM
      1 C1          0.0180   -1.1779   -0.0044 C.1       1 <0>        -0.0999
      2 C2          0.0021   -0.0041    0.0020 C.1       1 <0>        -0.2738
      3 C3         -0.0179    1.4678    0.0101 C.3       1 <0>         0.2566
      4 C4         -0.7638    1.9777   -1.2263 C.3       1 <0>        -0.0281
      5 C5         -1.5047    3.9517   -0.0335 C.3       1 <0>        -0.0027
      6 C6         -0.7764    3.4983    1.2381 C.3       1 <0>        -0.1332
      7 C7         -0.7412    1.9651    1.2680 C.3       1 <0>        -0.0852
      8 C8         -2.1858    1.4420    1.2373 C.3       1 <0>        -0.1368
      9 C9         -2.8718    1.9529   -0.0328 C.3       1 <0>        -0.0033
     10 O1          1.3218    1.9649   -0.0000 O.3       1 <0>        -0.5290
     11 H1          0.0322   -2.2278   -0.0102 H         1 <0>         0.2298
     12 H2         -0.0963    2.5995   -1.8230 H         1 <0>         0.1432
     13 H3         -1.1014    1.1300   -1.8226 H         1 <0>         0.1363
     14 H4         -0.8325    4.5597   -0.6390 H         1 <0>         0.1308
     15 H5         -2.3815    4.5394    0.2386 H         1 <0>         0.1321
     16 H6         -1.3062    3.8686    2.1158 H         1 <0>         0.1056
     17 H7          0.2420    3.8870    1.2331 H         1 <0>         0.1107
     18 H8         -0.2286    1.6077    2.1611 H         1 <0>         0.1251
     19 H9         -2.7233    1.8041    2.1136 H         1 <0>         0.1105
     20 H10        -2.1808    0.3520    1.2364 H         1 <0>         0.1023
     21 H11        -3.7373    2.5570    0.2393 H         1 <0>         0.1342
     22 H12        -3.1951    1.1059   -0.6378 H         1 <0>         0.1287
     23 H13         1.8369    1.6917   -0.7715 H         1 <0>         0.3968
     24 N1         -1.9387    2.7814   -0.8258 N.4       1 <0>        -0.3870
     25 H14        -2.4207    3.1109   -1.6704 H         1 <0>         0.4364
@<TRIPOS>BOND
     1    1    2 3
     2    1   11 1
     3    2    3 1
     4    3    7 1
     5    3    4 1
     6    3   10 1
     7    4   12 1
     8    4   13 1
     9    4   24 1
    10    5    6 1
    11    5   14 1
    12    5   15 1
    13    5   24 1
    14    6    7 1
    15    6   16 1
    16    6   17 1
    17    7    8 1
    18    7   18 1
    19    8    9 1
    20    8   19 1
    21    8   20 1
    22    9   21 1
    23    9   22 1
    24    9   24 1
    25   10   23 1
    26   24   25 1
@<TRIPOS>MOLECULE
ZINC20257160
   27    27     0     0     0
SMALL
USER_CHARGES
(2S)-2-thiomorpholinopropan-1-amine
@<TRIPOS>ATOM
      1 C1         -1.7572    3.3549    0.0957 C.3       1 <0>        -0.1909
      2 C2         -0.8619    2.9509   -1.0774 C.3       1 <0>         0.0541
      3 H1         -0.8087    1.8555   -1.1633 H         1 <0>         0.1098
      4 C3         -1.4055    3.5651   -2.3689 C.3       1 <0>         0.0072
      5 N1         -0.4778    3.2847   -3.4729 N.4       1 <0>        -0.6804
      6 N2          0.5040    3.4371   -0.8410 N.3       1 <0>        -0.5648
      7 C4          1.1841    2.6220    0.1681 C.3       1 <0>         0.0520
      8 C5          2.6996    2.8331    0.0717 C.3       1 <0>        -0.0859
      9 S1          3.0556    4.5869    0.4020 S.3       1 <0>        -0.2433
     10 C6          1.9054    5.4469   -0.7157 C.3       1 <0>        -0.0878
     11 C7          0.5031    4.8632   -0.5071 C.3       1 <0>         0.0375
     12 H2         -1.3664    2.9133    1.0243 H         1 <0>         0.0778
     13 H3         -2.7800    2.9908   -0.0813 H         1 <0>         0.0777
     14 H4         -1.7689    4.4510    0.1875 H         1 <0>         0.0724
     15 H5         -2.3892    3.1287   -2.5968 H         1 <0>         0.1357
     16 H6         -1.5074    4.6531   -2.2430 H         1 <0>         0.1269
     17 H7         -0.8687    3.7263   -4.4014 H         1 <0>         0.4565
     18 H8         -0.3760    2.1967   -3.5989 H         1 <0>         0.4549
     19 H9          0.8391    2.9161    1.1703 H         1 <0>         0.0650
     20 H10         0.9534    1.5600   -0.0020 H         1 <0>         0.0935
     21 H11         3.2060    2.1994    0.8146 H         1 <0>         0.1184
     22 H12         3.0441    2.5622   -0.9372 H         1 <0>         0.0926
     23 H13         1.9043    6.5222   -0.4841 H         1 <0>         0.1176
     24 H14         2.2251    5.2965   -1.7574 H         1 <0>         0.0886
     25 H15        -0.2107    5.3913   -1.1564 H         1 <0>         0.0855
     26 H16         0.2079    4.9934    0.5445 H         1 <0>         0.0696
     27 H17         0.5059    3.7211   -3.2450 H         1 <0>         0.4601
@<TRIPOS>BOND
     1    1    2 1
     2    1   12 1
     3    1   13 1
     4    1   14 1
     5    2    3 1
     6    2    4 1
     7    2    6 1
     8    4    5 1
     9    4   15 1
    10    4   16 1
    11    5   17 1
    12    5   18 1
    13    5   27 1
    14    6   11 1
    15    6    7 1
    16    7    8 1
    17    7   19 1
    18    7   20 1
    19    8    9 1
    20    8   21 1
    21    8   22 1
    22    9   10 1
    23   10   11 1
    24   10   23 1
    25   10   24 1
    26   11   25 1
    27   11   26 1
@<TRIPOS>MOLECULE
ZINC39048889
   21    21     0     0     0
SMALL
USER_CHARGES

@<TRIPOS>ATOM
      1 C1          0.0180   -1.1779   -0.0044 C.1       1 <0>        -0.1195
      2 C2          0.0021   -0.0041    0.0020 C.1       1 <0>        -0.2711
      3 C3         -0.0179    1.4678    0.0101 C.3       1 <0>         0.2485
      4 C4         -0.7497    1.9768   -1.2351 C.3       1 <0>        -0.1724
      5 C5          0.0197    1.5437   -2.4849 C.3       1 <0>        -0.0044
      6 N1          1.3753    2.1052   -2.4485 N.4       1 <0>        -0.5052
      7 C6          2.1072    1.5655   -1.2963 C.3       1 <0>        -0.0036
      8 C7          1.4182    1.9995   -0.0007 C.3       1 <0>        -0.1342
      9 O1         -0.6897    1.9301    1.1835 O.3       1 <0>        -0.5341
     10 H1          0.0322   -2.2278   -0.0102 H         1 <0>         0.2271
     11 H2         -1.7554    1.5575   -1.2632 H         1 <0>         0.1183
     12 H3         -0.8090    3.0648   -1.2031 H         1 <0>         0.1087
     13 H4          0.0782    0.4557   -2.5161 H         1 <0>         0.1315
     14 H5         -0.4988    1.9043   -3.3733 H         1 <0>         0.1407
     15 H6          1.8618    1.8623   -3.2984 H         1 <0>         0.4353
     16 H7          2.1213    0.4770   -1.3528 H         1 <0>         0.1321
     17 H8          3.1300    1.9422   -1.3072 H         1 <0>         0.1441
     18 H9          1.4038    3.0878    0.0569 H         1 <0>         0.1078
     19 H10         1.9621    1.5962    0.8535 H         1 <0>         0.1230
     20 H11        -1.6071    1.6325    1.2545 H         1 <0>         0.3971
     21 H12         1.3203    3.1096   -2.3702 H         1 <0>         0.4303
@<TRIPOS>BOND
     1    1    2 3
     2    1   10 1
     3    2    3 1
     4    3    8 1
     5    3    4 1
     6    3    9 1
     7    4    5 1
     8    4   11 1
     9    4   12 1
    10    5    6 1
    11    5   13 1
    12    5   14 1
    13    6    7 1
    14    6   15 1
    15    6   21 1
    16    7    8 1
    17    7   16 1
    18    7   17 1
    19    8   18 1
    20    8   19 1
    21    9   20 1
@<TRIPOS>MOLECULE
ZINC42783294
   28    29     0     0     0
SMALL
USER_CHARGES

@<TRIPOS>ATOM
      1 C1         -0.0190    1.5472    0.0105 C.3       1 <0>        -0.1446
      2 C2          1.4937    1.8807   -0.0021 C.3       1 <0>         0.0449
      3 N1          2.1161    0.8436    0.8481 N.3       1 <0>        -0.6762
      4 C3          1.2367   -0.3397    0.8648 C.3       1 <0>         0.0366
      5 C4          0.0021   -0.0041    0.0020 C.3       1 <0>         0.0029
      6 H1          0.1267   -0.3822   -1.0127 H         1 <0>         0.1453
      7 N2         -1.2204   -0.5435    0.6124 N.4       1 <0>        -0.3861
      8 C5         -1.2531   -2.0236    0.4894 C.3       1 <0>        -0.0020
      9 C6         -2.7458   -2.3925    0.6278 C.3       1 <0>        -0.1849
     10 C7         -3.5132   -1.1194    0.2159 C.3       1 <0>         0.0894
     11 H2         -4.1206   -0.7582    1.0458 H         1 <0>         0.0972
     12 C8         -2.4197   -0.0883   -0.1369 C.3       1 <0>        -0.0001
     13 O1         -4.3360   -1.3824   -0.9225 O.3       1 <0>        -0.5499
     14 H3         -0.4948    1.9262    0.9150 H         1 <0>         0.0981
     15 H4         -0.5120    1.9359   -0.8805 H         1 <0>         0.1050
     16 H5          1.8862    1.8248   -1.0175 H         1 <0>         0.0633
     17 H6          1.6675    2.8710    0.4188 H         1 <0>         0.1039
     18 H7          3.0370    0.6050    0.5117 H         1 <0>         0.3621
     19 H8          1.7611   -1.1975    0.4439 H         1 <0>         0.0842
     20 H9          0.9267   -0.5569    1.8870 H         1 <0>         0.0918
     21 H10        -0.8739   -2.3326   -0.4847 H         1 <0>         0.1341
     22 H11        -0.6720   -2.4844    1.2881 H         1 <0>         0.1373
     23 H12        -2.9953   -3.2176   -0.0393 H         1 <0>         0.1209
     24 H13        -2.9764   -2.6563    1.6600 H         1 <0>         0.1073
     25 H14        -2.7169    0.9080    0.1903 H         1 <0>         0.1428
     26 H15        -2.2231   -0.0944   -1.2090 H         1 <0>         0.1426
     27 H16        -5.0133   -2.0558   -0.7712 H         1 <0>         0.4051
     28 H17        -1.2831   -0.2666    1.5807 H         1 <0>         0.4290
@<TRIPOS>BOND
     1    1    5 1
     2    1    2 1
     3    1   14 1
     4    1   15 1
     5    2    3 1
     6    2   16 1
     7    2   17 1
     8    3    4 1
     9    3   18 1
    10    4    5 1
    11    4   19 1
    12    4   20 1
    13    5    6 1
    14    5    7 1
    15    7   12 1
    16    7    8 1
    17    7   28 1
    18    8    9 1
    19    8   21 1
    20    8   22 1
    21    9   10 1
    22    9   23 1
    23    9   24 1
    24   10   11 1
    25   10   12 1
    26   10   13 1
    27   12   25 1
    28   12   26 1
    29   13   27 1
@<TRIPOS>MOLECULE
ZINC38864334
   26    26     0     0     0
SMALL
USER_CHARGES

@<TRIPOS>ATOM
      1 C1         -0.0187    1.5258    0.0104 C.3       1 <0>        -0.1844
      2 C2          0.0021   -0.0041    0.0020 C.3       1 <0>         0.0259
      3 H1         -1.0255   -0.3677    0.0099 H         1 <0>         0.1300
      4 C3          0.6721   -0.4725   -1.2648 C.3       1 <0>        -0.1384
      5 C4         -0.0024   -1.7851   -1.7275 C.3       1 <0>         0.0554
      6 N1          0.4036   -2.8720   -0.9450 N.3       1 <0>        -0.5608
      7 C5          0.0644   -2.7575    0.4889 C.3       1 <0>         0.0345
      8 C6          1.1081   -1.8871    1.1427 C.3       1 <0>        -0.0048
      9 N2          0.6830   -0.4770    1.2272 N.4       1 <0>        -0.5112
     10 C7         -0.0916   -4.1371   -1.5038 C.3       1 <0>         0.0242
     11 H2          1.0039    1.9031    0.0027 H         1 <0>         0.0837
     12 H3         -0.5459    1.8868   -0.8726 H         1 <0>         0.1069
     13 H4         -0.5289    1.8773    0.9072 H         1 <0>         0.0807
     14 H5          0.5626    0.2872   -2.0387 H         1 <0>         0.1163
     15 H6          1.7299   -0.6528   -1.0736 H         1 <0>         0.0959
     16 H7         -1.0842   -1.6758   -1.6520 H         1 <0>         0.0371
     17 H8          0.2638   -1.9753   -2.7673 H         1 <0>         0.0979
     18 H9         -0.9191   -2.3011    0.6002 H         1 <0>         0.0614
     19 H10         0.0674   -3.7458    0.9488 H         1 <0>         0.1198
     20 H11         1.3010   -2.2604    2.1485 H         1 <0>         0.1372
     21 H12         2.0295   -1.9431    0.5632 H         1 <0>         0.1405
     22 H13         1.4950    0.0992    1.3905 H         1 <0>         0.4276
     23 H14         0.3005   -4.2669   -2.5125 H         1 <0>         0.0813
     24 H15         0.2382   -4.9652   -0.8764 H         1 <0>         0.0792
     25 H16        -1.1809   -4.1179   -1.5370 H         1 <0>         0.0375
     26 H17         0.0529   -0.3758    2.0087 H         1 <0>         0.4267
@<TRIPOS>BOND
     1    1    2 1
     2    1   11 1
     3    1   12 1
     4    1   13 1
     5    2    3 1
     6    2    9 1
     7    2    4 1
     8    4    5 1
     9    4   14 1
    10    4   15 1
    11    5    6 1
    12    5   16 1
    13    5   17 1
    14    6    7 1
    15    6   10 1
    16    7    8 1
    17    7   18 1
    18    7   19 1
    19    8    9 1
    20    8   20 1
    21    8   21 1
    22    9   22 1
    23    9   26 1
    24   10   23 1
    25   10   24 1
    26   10   25 1
@<TRIPOS>MOLECULE
ZINC11998554
   66    67     0     0     0
SMALL
USER_CHARGES
4-[[[4-[(2R)-2-hydroxy-3-(1-piperidyl)propoxy]phenyl]methylamino]methyl]hepta-1,6-dien-4-ol
@<TRIPOS>ATOM
      1 C1          4.3337    2.0480   -0.6159 C.2       1 <0>        -0.1606
      2 C2          3.9914    1.1027    0.2239 C.2       1 <0>        -0.1943
      3 C3          3.3461    1.4596    1.5381 C.3       1 <0>        -0.1154
      4 C4          1.9928    0.7548    1.6499 C.3       1 <0>         0.1257
      5 C5          1.3288    1.1328    2.9755 C.3       1 <0>        -0.0920
      6 C6          2.2022    0.6872    4.1199 C.2       1 <0>        -0.1684
      7 C7          2.6417    1.5639    4.9884 C.2       1 <0>        -0.1658
      8 C8          1.0953    1.1867    0.4885 C.3       1 <0>        -0.0369
      9 C9         -1.1335    0.9988   -0.4387 C.3       1 <0>         0.0510
     10 C10        -2.4932    0.3841   -0.2282 C.ar      1 <0>        -0.1990
     11 C11        -2.7775   -0.8607   -0.7588 C.ar      1 <0>        -0.0465
     12 C12        -4.0214   -1.4288   -0.5624 C.ar      1 <0>        -0.2091
     13 C13        -4.9893   -0.7443    0.1582 C.ar      1 <0>         0.1611
     14 C14        -4.7034    0.5070    0.6846 C.ar      1 <0>        -0.1424
     15 C15        -3.4562    1.0683    0.4903 C.ar      1 <0>        -0.0476
     16 O1         -6.2154   -1.2989    0.3484 O.3       1 <0>        -0.2940
     17 C16        -6.4391   -2.5898   -0.2222 C.3       1 <0>         0.0270
     18 C17        -7.8645   -3.0471    0.0942 C.3       1 <0>         0.0842
     19 H1         -8.5726   -2.2922   -0.2476 H         1 <0>         0.1351
     20 C18        -8.1458   -4.3706   -0.6200 C.3       1 <0>        -0.0387
     21 C19        -9.7454   -6.1874   -0.6527 C.3       1 <0>        -0.0013
     22 C20       -11.1786   -6.5769   -0.2835 C.3       1 <0>        -0.1485
     23 C21       -12.1586   -5.7568   -1.1270 C.3       1 <0>        -0.1402
     24 C22       -11.9000   -4.2663   -0.8907 C.3       1 <0>        -0.1478
     25 C23       -10.4460   -3.9437   -1.2423 C.3       1 <0>        -0.0057
     26 O2         -8.0047   -3.2278    1.5048 O.3       1 <0>        -0.5410
     27 O3          2.1871   -0.6601    1.6010 O.3       1 <0>        -0.5472
     28 H2          4.1535    3.0832   -0.3663 H         1 <0>         0.1024
     29 H3          4.7961    1.7923   -1.5578 H         1 <0>         0.1071
     30 H4          4.1716    0.0675   -0.0257 H         1 <0>         0.1146
     31 H5          3.1993    2.5384    1.5897 H         1 <0>         0.0873
     32 H6          3.9904    1.1411    2.3576 H         1 <0>         0.1049
     33 H7          1.1954    2.2137    3.0197 H         1 <0>         0.0960
     34 H8          0.3574    0.6436    3.0478 H         1 <0>         0.0700
     35 H9          2.4658   -0.3550    4.2239 H         1 <0>         0.1207
     36 H10         2.3781    2.6060    4.8843 H         1 <0>         0.0995
     37 H11         3.2676    1.2445    5.8085 H         1 <0>         0.1079
     38 H12         1.5247    0.8393   -0.4512 H         1 <0>         0.1390
     39 H13         1.0191    2.2740    0.4731 H         1 <0>         0.1426
     40 H14        -1.2251    2.0847   -0.4606 H         1 <0>         0.1389
     41 H15        -0.7196    0.6500   -1.3849 H         1 <0>         0.1374
     42 H16        -2.0251   -1.3912   -1.3234 H         1 <0>         0.1373
     43 H17        -4.2415   -2.4030   -0.9733 H         1 <0>         0.1370
     44 H18        -5.4552    1.0416    1.2463 H         1 <0>         0.1467
     45 H19        -3.2330    2.0422    0.9002 H         1 <0>         0.1432
     46 H20        -6.3058   -2.5375   -1.3028 H         1 <0>         0.0868
     47 H21        -5.7277   -3.3009    0.1977 H         1 <0>         0.0819
     48 H22        -7.9580   -4.2546   -1.6874 H         1 <0>         0.1449
     49 H23        -7.4933   -5.1460   -0.2185 H         1 <0>         0.1378
     50 H24        -9.5704   -6.4036   -1.7066 H         1 <0>         0.1314
     51 H25        -9.0453   -6.7592   -0.0437 H         1 <0>         0.1280
     52 H26       -11.3500   -6.3738    0.7736 H         1 <0>         0.0890
     53 H27       -11.3293   -7.6384   -0.4798 H         1 <0>         0.1150
     54 H28       -13.1808   -5.9997   -0.8368 H         1 <0>         0.0971
     55 H29       -12.0137   -5.9889   -2.1821 H         1 <0>         0.0827
     56 H30       -12.0828   -4.0268    0.1569 H         1 <0>         0.0894
     57 H31       -12.5662   -3.6770   -1.5209 H         1 <0>         0.1145
     58 H32       -10.2546   -2.8860   -1.0616 H         1 <0>         0.1259
     59 H33       -10.2677   -4.1704   -2.2935 H         1 <0>         0.1320
     60 H34        -7.4039   -3.8870    1.8785 H         1 <0>         0.3913
     61 H35         2.6047   -0.9718    0.7864 H         1 <0>         0.3889
     62 N1         -0.2453    0.5983    0.6688 N.4       1 <0>        -0.5169
     63 H36        -0.6424    0.9263    1.5570 H         1 <0>         0.4292
     64 H37        -0.1663   -0.4253    0.6864 H         1 <0>         0.4338
     65 N2         -9.5541   -4.7472   -0.3793 N.4       1 <0>        -0.3905
     66 H38        -9.7856   -4.5613    0.6036 H         1 <0>         0.4334
@<TRIPOS>BOND
     1    1    2 2
     2    1   28 1
     3    1   29 1
     4    2    3 1
     5    2   30 1
     6    3    4 1
     7    3   31 1
     8    3   32 1
     9    4    5 1
    10    4    8 1
    11    4   27 1
    12    5    6 1
    13    5   33 1
    14    5   34 1
    15    6    7 2
    16    6   35 1
    17    7   36 1
    18    7   37 1
    19    8   38 1
    20    8   39 1
    21    8   62 1
    22    9   10 1
    23    9   40 1
    24    9   41 1
    25    9   62 1
    26   10   15 ar
    27   10   11 ar
    28   11   12 ar
    29   11   42 1
    30   12   13 ar
    31   12   43 1
    32   13   14 ar
    33   13   16 1
    34   14   15 ar
    35   14   44 1
    36   15   45 1
    37   16   17 1
    38   17   18 1
    39   17   46 1
    40   17   47 1
    41   18   19 1
    42   18   20 1
    43   18   26 1
    44   20   48 1
    45   20   49 1
    46   20   65 1
    47   21   22 1
    48   21   50 1
    49   21   51 1
    50   21   65 1
    51   22   23 1
    52   22   52 1
    53   22   53 1
    54   23   24 1
    55   23   54 1
    56   23   55 1
    57   24   25 1
    58   24   56 1
    59   24   57 1
    60   25   58 1
    61   25   59 1
    62   25   65 1
    63   26   60 1
    64   27   61 1
    65   62   63 1
    66   62   64 1
    67   65   66 1
@<TRIPOS>MOLECULE
ZINC25572662
   73    75     0     0     0
SMALL
USER_CHARGES

@<TRIPOS>ATOM
      1 C1         -0.4409    0.0564   -0.2782 C.3       1 <0>        -0.1757
      2 C2         -0.8674   -1.3379    0.1855 C.3       1 <0>         0.0923
      3 H1         -1.9344   -1.3361    0.4082 H         1 <0>         0.1470
      4 C3         -0.5835   -2.3386   -0.9049 C.ar      1 <0>        -0.1640
      5 C4          0.5439   -3.1344   -0.8366 C.ar      1 <0>        -0.0927
      6 C5          0.8052   -4.0522   -1.8368 C.ar      1 <0>        -0.1265
      7 C6         -0.0608   -4.1767   -2.9077 C.ar      1 <0>        -0.0533
      8 C7         -1.1895   -3.3839   -2.9804 C.ar      1 <0>        -0.1931
      9 C8         -1.4567   -2.4656   -1.9751 C.ar      1 <0>         0.1508
     10 O1         -2.5695   -1.6882   -2.0416 O.3       1 <0>        -0.3027
     11 C9         -3.4235   -1.8732   -3.1723 C.3       1 <0>         0.0274
     12 C10        -4.6147   -0.9180   -3.0734 C.3       1 <0>         0.0876
     13 H2         -4.2525    0.1043   -2.9649 H         1 <0>         0.1352
     14 C11        -5.4623   -1.0268   -4.3425 C.3       1 <0>        -0.0470
     15 N1         -6.5369   -0.0261   -4.3008 N.4       1 <0>        -0.5024
     16 C12        -7.3508   -0.1306   -5.5193 C.3       1 <0>         0.0237
     17 C13        -8.0605   -1.4858   -5.5439 C.3       1 <0>        -0.1867
     18 C14        -8.3918    0.9906   -5.5349 C.3       1 <0>        -0.1863
     19 O2         -5.4102   -1.2646   -1.9380 O.3       1 <0>        -0.5443
     20 N2         -0.1157   -1.7034    1.3935 N.4       1 <0>        -0.5098
     21 C15        -0.4834   -0.7993    2.4914 C.3       1 <0>        -0.0144
     22 C16         0.2995   -1.1801    3.7495 C.3       1 <0>        -0.1417
     23 C17        -0.0835   -0.2384    4.8930 C.3       1 <0>         0.0087
     24 C18         0.5933   -0.6881    6.1621 C.ar      1 <0>        -0.0911
     25 C19        -0.1521   -0.8916    7.3083 C.ar      1 <0>        -0.1102
     26 C20         0.4687   -1.3041    8.4725 C.ar      1 <0>        -0.1123
     27 C21         1.8350   -1.5135    8.4903 C.ar      1 <0>        -0.1102
     28 C22         2.5804   -1.3109    7.3439 C.ar      1 <0>        -0.1146
     29 C23         1.9589   -0.9025    6.1786 C.ar      1 <0>        -0.1165
     30 C24         0.3569    1.1634    4.5583 C.ar      1 <0>        -0.0943
     31 C25         1.6626    1.4043    4.1734 C.ar      1 <0>        -0.1205
     32 C26         2.0666    2.6901    3.8664 C.ar      1 <0>        -0.1136
     33 C27         1.1648    3.7350    3.9438 C.ar      1 <0>        -0.1127
     34 C28        -0.1411    3.4939    4.3278 C.ar      1 <0>        -0.1123
     35 C29        -0.5462    2.2074    4.6307 C.ar      1 <0>        -0.1141
     36 H3          0.6261    0.0546   -0.5009 H         1 <0>         0.0831
     37 H4         -0.9987    0.3276   -1.1745 H         1 <0>         0.1032
     38 H5         -0.6463    0.7802    0.5105 H         1 <0>         0.0864
     39 H6          1.2218   -3.0390   -0.0012 H         1 <0>         0.1270
     40 H7          1.6874   -4.6729   -1.7819 H         1 <0>         0.1427
     41 H8          0.1457   -4.8943   -3.6880 H         1 <0>         0.1424
     42 H9         -1.8655   -3.4814   -3.8170 H         1 <0>         0.1378
     43 H10        -2.8666   -1.6660   -4.0860 H         1 <0>         0.0886
     44 H11        -3.7833   -2.9019   -3.1914 H         1 <0>         0.0837
     45 H12        -4.8341   -0.8492   -5.2153 H         1 <0>         0.1473
     46 H13        -5.8971   -2.0244   -4.4046 H         1 <0>         0.1426
     47 H14        -7.1185   -0.1905   -3.4928 H         1 <0>         0.4320
     48 H15        -6.7075   -0.0413   -6.3947 H         1 <0>         0.1410
     49 H16        -8.6644   -1.5633   -6.4480 H         1 <0>         0.1106
     50 H17        -7.3189   -2.2845   -5.5328 H         1 <0>         0.0783
     51 H18        -8.7038   -1.5750   -4.6686 H         1 <0>         0.0841
     52 H19        -7.8862    1.9561   -5.5174 H         1 <0>         0.0836
     53 H20        -8.9957    0.9131   -6.4390 H         1 <0>         0.1109
     54 H21        -9.0351    0.9014   -4.6595 H         1 <0>         0.0837
     55 H22        -5.7666   -2.1631   -1.9670 H         1 <0>         0.3929
     56 H23        -0.3360   -2.6535    1.6521 H         1 <0>         0.4300
     57 H24        -0.2455    0.2270    2.2120 H         1 <0>         0.1377
     58 H25        -1.5521   -0.8836    2.6890 H         1 <0>         0.1348
     59 H26         0.0615   -2.2064    4.0289 H         1 <0>         0.0964
     60 H27         1.3681   -1.0958    3.5519 H         1 <0>         0.0925
     61 H28        -1.1645   -0.2563    5.0318 H         1 <0>         0.0958
     62 H29        -1.2196   -0.7280    7.2944 H         1 <0>         0.1224
     63 H30        -0.1136   -1.4624    9.3682 H         1 <0>         0.1277
     64 H31         2.3202   -1.8351    9.4001 H         1 <0>         0.1276
     65 H32         3.6478   -1.4742    7.3579 H         1 <0>         0.1259
     66 H33         2.5406   -0.7478    5.2820 H         1 <0>         0.1183
     67 H34         2.3671    0.5880    4.1130 H         1 <0>         0.1211
     68 H35         3.0868    2.8785    3.5664 H         1 <0>         0.1258
     69 H36         1.4806    4.7397    3.7047 H         1 <0>         0.1266
     70 H37        -0.8455    4.3103    4.3886 H         1 <0>         0.1266
     71 H38        -1.5674    2.0185    4.9271 H         1 <0>         0.1231
     72 H39         0.8735   -1.6254    1.2105 H         1 <0>         0.4258
     73 H40        -6.1345    0.8974   -4.2433 H         1 <0>         0.4304
@<TRIPOS>BOND
     1    1    2 1
     2    1   36 1
     3    1   37 1
     4    1   38 1
     5    2    3 1
     6    2    4 1
     7    2   20 1
     8    4    9 ar
     9    4    5 ar
    10    5    6 ar
    11    5   39 1
    12    6    7 ar
    13    6   40 1
    14    7    8 ar
    15    7   41 1
    16    8    9 ar
    17    8   42 1
    18    9   10 1
    19   10   11 1
    20   11   12 1
    21   11   43 1
    22   11   44 1
    23   12   13 1
    24   12   14 1
    25   12   19 1
    26   14   15 1
    27   14   45 1
    28   14   46 1
    29   15   16 1
    30   15   47 1
    31   15   73 1
    32   16   17 1
    33   16   18 1
    34   16   48 1
    35   17   49 1
    36   17   50 1
    37   17   51 1
    38   18   52 1
    39   18   53 1
    40   18   54 1
    41   19   55 1
    42   20   21 1
    43   20   56 1
    44   20   72 1
    45   21   22 1
    46   21   57 1
    47   21   58 1
    48   22   23 1
    49   22   59 1
    50   22   60 1
    51   23   24 1
    52   23   30 1
    53   23   61 1
    54   24   29 ar
    55   24   25 ar
    56   25   26 ar
    57   25   62 1
    58   26   27 ar
    59   26   63 1
    60   27   28 ar
    61   27   64 1
    62   28   29 ar
    63   28   65 1
    64   29   66 1
    65   30   35 ar
    66   30   31 ar
    67   31   32 ar
    68   31   67 1
    69   32   33 ar
    70   32   68 1
    71   33   34 ar
    72   33   69 1
    73   34   35 ar
    74   34   70 1
    75   35   71 1
@<TRIPOS>MOLECULE
ZINC45420154
   56    56     0     0     0
SMALL
USER_CHARGES

@<TRIPOS>ATOM
      1 C1          2.8418   -3.2459   -4.6567 C.3       1 <0>        -0.1582
      2 C2          2.6842   -4.5675   -3.9021 C.3       1 <0>         0.0562
      3 O1          3.0015   -4.3694   -2.5230 O.3       1 <0>        -0.3702
      4 C3          2.8855   -5.5488   -1.7246 C.3       1 <0>         0.0788
      5 C4          4.2276   -6.2860   -1.7021 C.3       1 <0>        -0.1749
      6 C5          4.1189   -7.5040   -0.7822 C.3       1 <0>        -0.0016
      7 N1          3.7765   -7.0665    0.5765 N.4       1 <0>        -0.3859
      8 C6          2.4577   -6.4222    0.5747 C.3       1 <0>        -0.0071
      9 C7          2.5024   -5.1626   -0.2931 C.3       1 <0>        -0.1478
     10 C8          3.7498   -8.2307    1.4720 C.3       1 <0>        -0.0079
     11 C9          3.5163   -7.7628    2.9099 C.3       1 <0>        -0.1570
     12 C10         3.4885   -8.9752    3.8426 C.3       1 <0>        -0.1342
     13 C11         3.2550   -8.5073    5.2805 C.3       1 <0>         0.0394
     14 C12         1.9183   -7.7678    5.3654 C.3       1 <0>        -0.1752
     15 C13         4.3690   -7.5806    5.6943 C.2       1 <0>         0.5151
     16 O2          4.1715   -6.3856    5.7582 O.2       1 <0>        -0.4777
     17 N2          5.5847   -8.0796    5.9935 N.am      1 <0>        -0.8487
     18 N3          3.2284   -9.6715    6.1760 N.4       1 <0>        -0.5004
     19 C14         2.8456   -9.2410    7.5274 C.3       1 <0>         0.0105
     20 C15         2.5696  -10.4705    8.3952 C.3       1 <0>        -0.1832
     21 C16         3.9841   -8.4262    8.1446 C.3       1 <0>        -0.2000
     22 H1          3.8704   -2.8967   -4.5671 H         1 <0>         0.0668
     23 H2          2.5998   -3.3971   -5.7087 H         1 <0>         0.0811
     24 H3          2.1673   -2.5024   -4.2320 H         1 <0>         0.0679
     25 H4          1.6556   -4.9167   -3.9918 H         1 <0>         0.0567
     26 H5          3.3587   -5.3111   -4.3269 H         1 <0>         0.0537
     27 H6          2.1181   -6.1991   -2.1444 H         1 <0>         0.0785
     28 H7          4.4801   -6.6131   -2.7107 H         1 <0>         0.1170
     29 H8          5.0040   -5.6173   -1.3305 H         1 <0>         0.0991
     30 H9          3.3425   -8.1721   -1.1548 H         1 <0>         0.1324
     31 H10         5.0728   -8.0313   -0.7640 H         1 <0>         0.1360
     32 H11         1.7166   -7.1133    0.1731 H         1 <0>         0.1337
     33 H12         2.1850   -6.1508    1.5945 H         1 <0>         0.1343
     34 H13         3.2430   -4.4705    0.1078 H         1 <0>         0.0991
     35 H14         1.5218   -4.6866   -0.2945 H         1 <0>         0.1219
     36 H15         2.9441   -8.9010    1.1727 H         1 <0>         0.1370
     37 H16         4.7022   -8.7575    1.4115 H         1 <0>         0.1361
     38 H17         4.3220   -7.0924    3.2092 H         1 <0>         0.0997
     39 H18         2.5640   -7.2359    2.9704 H         1 <0>         0.1076
     40 H19         2.6828   -9.6456    3.5433 H         1 <0>         0.1175
     41 H20         4.4409   -9.5021    3.7821 H         1 <0>         0.1050
     42 H21         1.1126   -8.4381    5.0660 H         1 <0>         0.0990
     43 H22         1.7519   -7.4345    6.3897 H         1 <0>         0.0984
     44 H23         1.9381   -6.9040    4.7009 H         1 <0>         0.1148
     45 H24         5.7426   -9.0353    5.9424 H         1 <0>         0.3997
     46 H25         6.3017   -7.4831    6.2599 H         1 <0>         0.4301
     47 H26         2.5575  -10.3433    5.8344 H         1 <0>         0.4363
     48 H27         1.9473   -8.6262    7.4721 H         1 <0>         0.1513
     49 H28         3.4680  -11.0853    8.4505 H         1 <0>         0.0845
     50 H29         2.2857  -10.1511    9.3980 H         1 <0>         0.1140
     51 H30         1.7586  -11.0509    7.9555 H         1 <0>         0.0858
     52 H31         3.8317   -8.3465    9.2210 H         1 <0>         0.1143
     53 H32         4.9343   -8.9226    7.9479 H         1 <0>         0.0845
     54 H33         3.9971   -7.4290    7.7047 H         1 <0>         0.0880
     55 H34         4.4700   -6.4100    0.9021 H         1 <0>         0.4262
     56 H35         4.1438  -10.0949    6.2045 H         1 <0>         0.4224
@<TRIPOS>BOND
     1    1    2 1
     2    1   22 1
     3    1   23 1
     4    1   24 1
     5    2    3 1
     6    2   25 1
     7    2   26 1
     8    3    4 1
     9    4    9 1
    10    4    5 1
    11    4   27 1
    12    5    6 1
    13    5   28 1
    14    5   29 1
    15    6    7 1
    16    6   30 1
    17    6   31 1
    18    7    8 1
    19    7   10 1
    20    7   55 1
    21    8    9 1
    22    8   32 1
    23    8   33 1
    24    9   34 1
    25    9   35 1
    26   10   11 1
    27   10   36 1
    28   10   37 1
    29   11   12 1
    30   11   38 1
    31   11   39 1
    32   12   13 1
    33   12   40 1
    34   12   41 1
    35   13   14 1
    36   13   15 1
    37   13   18 1
    38   14   42 1
    39   14   43 1
    40   14   44 1
    41   15   16 2
    42   15   17 am
    43   17   45 1
    44   17   46 1
    45   18   19 1
    46   18   47 1
    47   18   56 1
    48   19   20 1
    49   19   21 1
    50   19   48 1
    51   20   49 1
    52   20   50 1
    53   20   51 1
    54   21   52 1
    55   21   53 1
    56   21   54 1
@<TRIPOS>MOLECULE
ZINC55091057
   55    56     0     0     0
SMALL
USER_CHARGES

@<TRIPOS>ATOM
      1 C1         -0.0178    1.4648    0.0101 C.3       1 <0>        -0.0465
      2 N1          0.0021   -0.0041    0.0020 N.4       1 <0>        -0.3886
      3 C2          0.6881   -0.4775   -1.2074 C.3       1 <0>        -0.0031
      4 C3          0.6925   -2.0076   -1.2257 C.3       1 <0>         0.0269
      5 N2          1.3783   -2.5070   -0.0254 N.3       1 <0>        -0.5362
      6 C4          0.7172   -2.0206    1.1938 C.3       1 <0>         0.0189
      7 C5          0.7125   -0.4904    1.1921 C.3       1 <0>        -0.0029
      8 C6          1.4533   -3.9741   -0.0341 C.3       1 <0>         0.0441
      9 C7          2.3808   -4.4439    1.0884 C.3       1 <0>         0.1194
     10 N3          2.4557   -5.9069    1.0798 N.am      1 <0>        -0.7365
     11 C8          3.2195   -6.5480    1.9865 C.2       1 <0>         0.5134
     12 O1          3.8449   -5.9136    2.8096 O.2       1 <0>        -0.5305
     13 C9          3.2965   -8.0530    1.9777 C.3       1 <0>        -0.1426
     14 C10         4.2240   -8.5228    3.1001 C.3       1 <0>        -0.1028
     15 C11         4.3022  -10.0508    3.0912 C.3       1 <0>        -0.0944
     16 C12         2.9288  -10.6337    3.4302 C.3       1 <0>        -0.1169
     17 C13         3.0070  -12.1617    3.4212 C.3       1 <0>        -0.1425
     18 C14         4.0290  -12.6262    4.4608 C.3       1 <0>         0.0250
     19 C15         5.4024  -12.0432    4.1217 C.3       1 <0>        -0.1425
     20 C16         5.3242  -10.5153    4.1307 C.3       1 <0>        -0.1144
     21 N4          4.1041  -14.0932    4.4522 N.4       1 <0>        -0.6377
     22 H1          1.0047    1.8421    0.0024 H         1 <0>         0.1242
     23 H2         -0.5450    1.8259   -0.8730 H         1 <0>         0.1258
     24 H3         -0.5280    1.8163    0.9069 H         1 <0>         0.1255
     25 H4          0.1675   -0.1052   -2.0897 H         1 <0>         0.1386
     26 H5          1.7147   -0.1111   -1.2098 H         1 <0>         0.1392
     27 H6         -0.3339   -2.3742   -1.2371 H         1 <0>         0.0629
     28 H7          1.2146   -2.3592   -2.1156 H         1 <0>         0.1255
     29 H8         -0.3088   -2.3874    1.2222 H         1 <0>         0.0631
     30 H9          1.2573   -2.3817    2.0691 H         1 <0>         0.1256
     31 H10         1.7390   -0.1239    1.1774 H         1 <0>         0.1394
     32 H11         0.2100   -0.1276    2.0887 H         1 <0>         0.1379
     33 H12         0.4575   -4.3897    0.1196 H         1 <0>         0.0540
     34 H13         1.8441   -4.3122   -0.9938 H         1 <0>         0.0963
     35 H14         3.3767   -4.0282    0.9348 H         1 <0>         0.0820
     36 H15         1.9900   -4.1057    2.0481 H         1 <0>         0.0682
     37 H16         1.9555   -6.4143    0.4215 H         1 <0>         0.4026
     38 H17         2.3007   -8.4687    2.1313 H         1 <0>         0.0954
     39 H18         3.6873   -8.3911    1.0180 H         1 <0>         0.0971
     40 H19         5.2199   -8.1071    2.9465 H         1 <0>         0.0783
     41 H20         3.8332   -8.1846    4.0598 H         1 <0>         0.0753
     42 H21         4.6082  -10.3931    2.1026 H         1 <0>         0.0801
     43 H22         2.6228  -10.2914    4.4188 H         1 <0>         0.0771
     44 H23         2.2008  -10.3028    2.6896 H         1 <0>         0.0847
     45 H24         2.0286  -12.5770    3.6628 H         1 <0>         0.0887
     46 H25         3.3131  -12.5040    2.4327 H         1 <0>         0.0881
     47 H26         3.7230  -12.2838    5.4494 H         1 <0>         0.1416
     48 H27         6.1305  -12.3741    4.8623 H         1 <0>         0.0902
     49 H28         5.7084  -12.3856    3.1332 H         1 <0>         0.0882
     50 H29         6.3026  -10.1000    3.8891 H         1 <0>         0.0877
     51 H30         5.0182  -10.1729    5.1193 H         1 <0>         0.0774
     52 H31         4.3874  -14.4101    3.5371 H         1 <0>         0.4333
     53 H32         4.7781  -14.3996    5.1377 H         1 <0>         0.4374
     54 H33         3.1984  -14.4777    4.6758 H         1 <0>         0.4365
     55 H34        -0.9446   -0.3531    0.0097 H         1 <0>         0.4226
@<TRIPOS>BOND
     1    1    2 1
     2    1   22 1
     3    1   23 1
     4    1   24 1
     5    2    7 1
     6    2    3 1
     7    2   55 1
     8    3    4 1
     9    3   25 1
    10    3   26 1
    11    4    5 1
    12    4   27 1
    13    4   28 1
    14    5    6 1
    15    5    8 1
    16    6    7 1
    17    6   29 1
    18    6   30 1
    19    7   31 1
    20    7   32 1
    21    8    9 1
    22    8   33 1
    23    8   34 1
    24    9   10 1
    25    9   35 1
    26    9   36 1
    27   10   11 am
    28   10   37 1
    29   11   12 2
    30   11   13 1
    31   13   14 1
    32   13   38 1
    33   13   39 1
    34   14   15 1
    35   14   40 1
    36   14   41 1
    37   15   20 1
    38   15   16 1
    39   15   42 1
    40   16   17 1
    41   16   43 1
    42   16   44 1
    43   17   18 1
    44   17   45 1
    45   17   46 1
    46   18   19 1
    47   18   21 1
    48   18   47 1
    49   19   20 1
    50   19   48 1
    51   19   49 1
    52   20   50 1
    53   20   51 1
    54   21   52 1
    55   21   53 1
    56   21   54 1
@<TRIPOS>MOLECULE
ZINC62941856
   55    56     0     0     0
SMALL
USER_CHARGES

@<TRIPOS>ATOM
      1 C1         -0.0187    1.5258    0.0104 C.3       1 <0>        -0.1737
      2 C2          0.0021   -0.0041    0.0020 C.3       1 <0>         0.0392
      3 C3          0.7421   -0.5109    1.2415 C.3       1 <0>        -0.1360
      4 C4          0.0259   -0.0175    2.5003 C.3       1 <0>        -0.1222
      5 C5          0.7659   -0.5243    3.7399 C.3       1 <0>        -0.1491
      6 C6          0.0498   -0.0309    4.9987 C.3       1 <0>        -0.0094
      7 N1          0.7603   -0.5175    6.1888 N.4       1 <0>        -0.3852
      8 C7          0.7049   -1.9802    6.2169 C.3       1 <0>        -0.0135
      9 C8          1.0453   -2.6219    7.5514 C.3       1 <0>        -0.1449
     10 C9          2.2685   -1.9232    8.1811 C.3       1 <0>         0.0918
     11 N2          1.7708   -0.8734    9.0311 N.3       1 <0>        -0.6232
     12 C10         2.5189   -0.4695   10.2162 C.3       1 <0>         0.0876
     13 C11         1.8718    0.8641   10.6737 C.3       1 <0>        -0.1337
     14 C12         0.7570    1.1521    9.6284 C.3       1 <0>        -0.1109
     15 C13         1.2139    0.3006    8.4278 C.3       1 <0>         0.0922
     16 H1          2.0234    0.8352    7.9309 H         1 <0>         0.0417
     17 C14         0.1364    0.0599    7.3954 C.3       1 <0>         0.0015
     18 C15        -1.4117   -0.5257    0.0127 C.2       1 <0>         0.5094
     19 O1         -2.3058    0.1551    0.4688 O.2       1 <0>        -0.4728
     20 N3         -1.6826   -1.7487   -0.4846 N.am      1 <0>        -0.8493
     21 N4          0.6897   -0.4778   -1.2066 N.4       1 <0>        -0.5034
     22 C16        -0.0208    0.0088   -2.3967 C.3       1 <0>        -0.0647
     23 H2          1.0039    1.9031    0.0027 H         1 <0>         0.0973
     24 H3         -0.5459    1.8868   -0.8726 H         1 <0>         0.0939
     25 H4         -0.5289    1.8773    0.9072 H         1 <0>         0.1184
     26 H5          0.7568   -1.6008    1.2356 H         1 <0>         0.0972
     27 H6          1.7647   -0.1336    1.2338 H         1 <0>         0.1099
     28 H7          0.0111    1.0724    2.5063 H         1 <0>         0.0950
     29 H8         -0.9967   -0.3948    2.5081 H         1 <0>         0.0888
     30 H9          0.7807   -1.6142    3.7339 H         1 <0>         0.0916
     31 H10         1.7885   -0.1470    3.7321 H         1 <0>         0.0923
     32 H11         0.0350    1.0590    5.0047 H         1 <0>         0.1350
     33 H12        -0.9728   -0.4082    5.0064 H         1 <0>         0.1337
     34 H13        -0.3016   -2.2897    5.9356 H         1 <0>         0.1251
     35 H14         1.3973   -2.3629    5.4671 H         1 <0>         0.1215
     36 H15         0.1920   -2.5318    8.2236 H         1 <0>         0.1026
     37 H16         1.2715   -3.6770    7.3976 H         1 <0>         0.1161
     38 H17         2.8410   -2.6385    8.7716 H         1 <0>         0.1038
     39 H18         2.8975   -1.4996    7.3981 H         1 <0>         0.0333
     40 H19         2.4240   -1.2232   10.9979 H         1 <0>         0.0873
     41 H20         3.5683   -0.3140    9.9657 H         1 <0>         0.0492
     42 H21         1.4391    0.7535   11.6679 H         1 <0>         0.0875
     43 H22         2.6113    1.6649   10.6688 H         1 <0>         0.0784
     44 H23        -0.2145    0.8195    9.9941 H         1 <0>         0.0876
     45 H24         0.7318    2.2102    9.3679 H         1 <0>         0.0875
     46 H25        -0.3451    1.0044    7.1420 H         1 <0>         0.1414
     47 H26        -0.6029   -0.6353    7.7934 H         1 <0>         0.1411
     48 H27        -0.9675   -2.2932   -0.8494 H         1 <0>         0.3974
     49 H28        -2.5926   -2.0845   -0.4777 H         1 <0>         0.4295
     50 H29         1.6363   -0.1286   -1.2138 H         1 <0>         0.4401
     51 H30        -1.0434   -0.3685   -2.3890 H         1 <0>         0.1241
     52 H31        -0.0356    1.0987   -2.3907 H         1 <0>         0.1361
     53 H32         0.4894   -0.3427   -3.2935 H         1 <0>         0.1427
     54 H33         1.7245   -0.2241    6.1418 H         1 <0>         0.4180
     55 H34         0.7033   -1.4867   -1.2121 H         1 <0>         0.4257
@<TRIPOS>BOND
     1    1    2 1
     2    1   23 1
     3    1   24 1
     4    1   25 1
     5    2    3 1
     6    2   18 1
     7    2   21 1
     8    3    4 1
     9    3   26 1
    10    3   27 1
    11    4    5 1
    12    4   28 1
    13    4   29 1
    14    5    6 1
    15    5   30 1
    16    5   31 1
    17    6    7 1
    18    6   32 1
    19    6   33 1
    20    7   17 1
    21    7    8 1
    22    7   54 1
    23    8    9 1
    24    8   34 1
    25    8   35 1
    26    9   10 1
    27    9   36 1
    28    9   37 1
    29   10   11 1
    30   10   38 1
    31   10   39 1
    32   11   15 1
    33   11   12 1
    34   12   13 1
    35   12   40 1
    36   12   41 1
    37   13   14 1
    38   13   42 1
    39   13   43 1
    40   14   15 1
    41   14   44 1
    42   14   45 1
    43   15   16 1
    44   15   17 1
    45   17   46 1
    46   17   47 1
    47   18   19 2
    48   18   20 am
    49   20   48 1
    50   20   49 1
    51   21   22 1
    52   21   50 1
    53   21   55 1
    54   22   51 1
    55   22   52 1
    56   22   53 1
@<TRIPOS>MOLECULE
ZINC04989801
   61    62     0     0     0
SMALL
USER_CHARGES
1-cyclohexylamino-3-(3-cyclohexylamino-2-hydroxy-propyl)sulfanyl-propan-2-ol
@<TRIPOS>ATOM
      1 C1          3.5392    1.2334  -11.7491 C.3       1 <0>        -0.1334
      2 C2          2.3206    0.3634  -11.4344 C.3       1 <0>        -0.1181
      3 C3          1.5725    0.9482  -10.2347 C.3       1 <0>        -0.1422
      4 C4          2.5027    0.9813   -9.0204 C.3       1 <0>         0.0286
      5 C5          3.7213    1.8513   -9.3351 C.3       1 <0>        -0.1389
      6 C6          4.4694    1.2665  -10.5348 C.3       1 <0>        -0.1182
      7 C7          2.3674    1.0730   -6.6046 C.3       1 <0>        -0.0364
      8 C8          1.5946    1.6776   -5.4307 C.3       1 <0>         0.1024
      9 H1          0.5505    1.3696   -5.4859 H         1 <0>         0.1339
     10 C9          2.2017    1.1883   -4.1143 C.3       1 <0>        -0.1438
     11 S1          1.1973    1.7848   -2.7266 S.3       1 <0>        -0.1643
     12 C10         2.0397    1.1274   -1.2607 C.3       1 <0>        -0.1438
     13 C11         1.2864    1.5618   -0.0018 C.3       1 <0>         0.1024
     14 H2          1.1856    2.6471    0.0050 H         1 <0>         0.1339
     15 C12         2.0636    1.1140    1.2377 C.3       1 <0>        -0.0364
     16 C13         2.0587    1.1171    3.6589 C.3       1 <0>         0.0285
     17 C14         1.6805   -0.3234    4.0091 C.3       1 <0>        -0.1389
     18 C15         2.4288   -0.7546    5.2721 C.3       1 <0>        -0.1182
     19 C16         2.0476    0.1689    6.4309 C.3       1 <0>        -0.1334
     20 C17         2.4259    1.6094    6.0807 C.3       1 <0>        -0.1181
     21 C18         1.6776    2.0406    4.8178 C.3       1 <0>        -0.1422
     22 O1         -0.0110    0.9628    0.0073 O.3       1 <0>        -0.5421
     23 O2          1.6746    3.1031   -5.4914 O.3       1 <0>        -0.5420
     24 H3          4.0722    0.8167  -12.6037 H         1 <0>         0.0819
     25 H4          3.2117    2.2462  -11.9836 H         1 <0>         0.0719
     26 H5          2.6481   -0.6495  -11.1998 H         1 <0>         0.0746
     27 H6          1.6579    0.3397  -12.2995 H         1 <0>         0.0876
     28 H7          0.7044    0.3284  -10.0105 H         1 <0>         0.0883
     29 H8          1.2450    1.9610  -10.4693 H         1 <0>         0.0892
     30 H9          2.8302   -0.0315   -8.7858 H         1 <0>         0.1380
     31 H10         3.3938    2.8642   -9.5696 H         1 <0>         0.0890
     32 H11         4.3840    1.8750   -8.4700 H         1 <0>         0.0821
     33 H12         4.7969    0.2537  -10.3002 H         1 <0>         0.0742
     34 H13         5.3376    1.8863  -10.7589 H         1 <0>         0.0863
     35 H14         3.4115    1.3810   -6.5494 H         1 <0>         0.1360
     36 H15         2.3064   -0.0143   -6.5584 H         1 <0>         0.1431
     37 H16         3.2178    1.5711   -4.0184 H         1 <0>         0.0977
     38 H17         2.2218    0.0985   -4.1064 H         1 <0>         0.1041
     39 H18         3.0592    1.5115   -1.2247 H         1 <0>         0.1041
     40 H19         2.0631    0.0389   -1.3127 H         1 <0>         0.0977
     41 H20         2.1644    0.0287    1.2309 H         1 <0>         0.1359
     42 H21         3.0532    1.5708    1.2307 H         1 <0>         0.1431
     43 H22         3.1328    1.1784    3.4836 H         1 <0>         0.1381
     44 H23         0.6064   -0.3847    4.1844 H         1 <0>         0.0890
     45 H24         1.9520   -0.9813    3.1835 H         1 <0>         0.0821
     46 H25         3.5028   -0.6933    5.0968 H         1 <0>         0.0742
     47 H26         2.1593   -1.7808    5.5216 H         1 <0>         0.0863
     48 H27         2.5807   -0.1382    7.3307 H         1 <0>         0.0819
     49 H28         0.9736    0.1076    6.6062 H         1 <0>         0.0719
     50 H29         3.4999    1.6707    5.9055 H         1 <0>         0.0746
     51 H30         2.1544    2.2673    6.9063 H         1 <0>         0.0876
     52 H31         1.9470    3.0668    4.5683 H         1 <0>         0.0883
     53 H32         0.6035    1.9793    4.9931 H         1 <0>         0.0892
     54 H33         0.0021   -0.0041    0.0020 H         1 <0>         0.3912
     55 H34         2.5766    3.4486   -5.4473 H         1 <0>         0.3912
     56 N1          1.7761    1.5495   -7.8692 N.4       1 <0>        -0.5141
     57 H35         0.7921    1.2597   -7.9133 H         1 <0>         0.4335
     58 H36         1.8331    2.5740   -7.9049 H         1 <0>         0.4358
     59 N2          1.3309    1.5363    2.4463 N.4       1 <0>        -0.5141
     60 H37         0.3987    1.1059    2.4449 H         1 <0>         0.4358
     61 H38         1.2359    2.5587    2.4448 H         1 <0>         0.4336
@<TRIPOS>BOND
     1    1    6 1
     2    1    2 1
     3    1   24 1
     4    1   25 1
     5    2    3 1
     6    2   26 1
     7    2   27 1
     8    3    4 1
     9    3   28 1
    10    3   29 1
    11    4    5 1
    12    4   30 1
    13    4   56 1
    14    5    6 1
    15    5   31 1
    16    5   32 1
    17    6   33 1
    18    6   34 1
    19    7    8 1
    20    7   35 1
    21    7   36 1
    22    7   56 1
    23    8    9 1
    24    8   10 1
    25    8   23 1
    26   10   11 1
    27   10   37 1
    28   10   38 1
    29   11   12 1
    30   12   13 1
    31   12   39 1
    32   12   40 1
    33   13   14 1
    34   13   15 1
    35   13   22 1
    36   15   41 1
    37   15   42 1
    38   15   59 1
    39   16   21 1
    40   16   17 1
    41   16   43 1
    42   16   59 1
    43   17   18 1
    44   17   44 1
    45   17   45 1
    46   18   19 1
    47   18   46 1
    48   18   47 1
    49   19   20 1
    50   19   48 1
    51   19   49 1
    52   20   21 1
    53   20   50 1
    54   20   51 1
    55   21   52 1
    56   21   53 1
    57   22   54 1
    58   23   55 1
    59   56   57 1
    60   56   58 1
    61   59   60 1
    62   59   61 1
@<TRIPOS>MOLECULE
ZINC37714943
   44    45     0     0     0
SMALL
USER_CHARGES

@<TRIPOS>ATOM
      1 C1         -0.0167    1.3784    0.0096 C.ar      1 <0>        -0.0628
      2 C2          1.1695    2.0865    0.0021 C.ar      1 <0>        -0.1338
      3 C3          2.3802    1.4093   -0.0131 C.ar      1 <0>         0.1503
      4 C4          2.3963    0.0221   -0.0206 C.ar      1 <0>        -0.1338
      5 C5          1.2074   -0.6814   -0.0130 C.ar      1 <0>        -0.1005
      6 C6          0.0021   -0.0041    0.0020 C.ar      1 <0>        -0.1618
      7 C7         -1.2934   -0.7740    0.0107 C.3       1 <0>         0.1422
      8 H1         -2.1025   -0.1276   -0.3293 H         1 <0>         0.1555
      9 C8         -1.5853   -1.2502    1.4104 C.ar      1 <0>        -0.1376
     10 C9         -0.9484   -2.3730    1.9051 C.ar      1 <0>        -0.1110
     11 C10        -1.2157   -2.8103    3.1887 C.ar      1 <0>        -0.0963
     12 C11        -2.1210   -2.1241    3.9785 C.ar      1 <0>        -0.0135
     13 C12        -2.7581   -1.0004    3.4828 C.ar      1 <0>        -0.0952
     14 C13        -2.4857   -0.5609    2.2010 C.ar      1 <0>        -0.0716
     15 Cl1        -2.4577   -2.6730    5.5906 Cl        1 <0>        -0.0310
     16 N1         -1.1811   -1.9314   -0.8869 N.4       1 <0>        -0.5081
     17 C14        -2.4795   -2.6133   -0.9713 C.3       1 <0>        -0.0134
     18 C15        -2.3626   -3.8188   -1.9062 C.3       1 <0>        -0.1486
     19 C16        -3.7149   -4.5291   -1.9942 C.3       1 <0>        -0.1512
     20 C17        -3.5980   -5.7346   -2.9291 C.3       1 <0>        -0.0086
     21 N2         -4.8964   -6.4165   -3.0135 N.4       1 <0>        -0.6391
     22 O1          3.5484    2.1036   -0.0209 O.3       1 <0>        -0.4934
     23 H2         -0.9594    1.9052    0.0259 H         1 <0>         0.1394
     24 H3          1.1543    3.1664    0.0076 H         1 <0>         0.1467
     25 H4          3.3375   -0.5074   -0.0328 H         1 <0>         0.1439
     26 H5          1.2194   -1.7613   -0.0189 H         1 <0>         0.1192
     27 H6         -0.2421   -2.9088    1.2883 H         1 <0>         0.1246
     28 H7         -0.7184   -3.6877    3.5750 H         1 <0>         0.1472
     29 H8         -3.4650   -0.4645    4.0988 H         1 <0>         0.1506
     30 H9         -2.9794    0.3190    1.8157 H         1 <0>         0.1449
     31 H10        -0.9050   -1.6189   -1.8057 H         1 <0>         0.4358
     32 H11        -2.7778   -2.9509    0.0212 H         1 <0>         0.1381
     33 H12        -3.2279   -1.9230   -1.3605 H         1 <0>         0.1393
     34 H13        -2.0643   -3.4813   -2.8988 H         1 <0>         0.1014
     35 H14        -1.6143   -4.5092   -1.5171 H         1 <0>         0.0993
     36 H15        -4.0132   -4.8666   -1.0016 H         1 <0>         0.1002
     37 H16        -4.4633   -3.8387   -2.3833 H         1 <0>         0.1009
     38 H17        -3.2997   -5.3970   -3.9216 H         1 <0>         0.1383
     39 H18        -2.8497   -6.4249   -2.5399 H         1 <0>         0.1379
     40 H19        -4.8193   -7.2115   -3.6300 H         1 <0>         0.4461
     41 H20        -5.1726   -6.7289   -2.0947 H         1 <0>         0.4385
     42 H21         3.8951    2.3001    0.8601 H         1 <0>         0.4090
     43 H22        -5.5892   -5.7774   -3.3737 H         1 <0>         0.4386
     44 H23        -0.4884   -2.5705   -0.5267 H         1 <0>         0.4236
@<TRIPOS>BOND
     1    1    6 ar
     2    1    2 ar
     3    1   23 1
     4    2    3 ar
     5    2   24 1
     6    3    4 ar
     7    3   22 1
     8    4    5 ar
     9    4   25 1
    10    5    6 ar
    11    5   26 1
    12    6    7 1
    13    7    8 1
    14    7    9 1
    15    7   16 1
    16    9   14 ar
    17    9   10 ar
    18   10   11 ar
    19   10   27 1
    20   11   12 ar
    21   11   28 1
    22   12   13 ar
    23   12   15 1
    24   13   14 ar
    25   13   29 1
    26   14   30 1
    27   16   17 1
    28   16   31 1
    29   16   44 1
    30   17   18 1
    31   17   32 1
    32   17   33 1
    33   18   19 1
    34   18   34 1
    35   18   35 1
    36   19   20 1
    37   19   36 1
    38   19   37 1
    39   20   21 1
    40   20   38 1
    41   20   39 1
    42   21   40 1
    43   21   41 1
    44   21   43 1
    45   22   42 1
@<TRIPOS>MOLECULE
ZINC42428238
   53    54     0     0     0
SMALL
USER_CHARGES

@<TRIPOS>ATOM
      1 C1         -0.4025    1.7306   -0.0454 C.3       1 <0>        -0.1627
      2 C2         -0.3372    0.2354    0.2727 C.3       1 <0>        -0.1277
      3 C3         -0.3765   -0.5654   -1.0304 C.3       1 <0>        -0.0870
      4 H1         -1.2581   -0.2814   -1.6050 H         1 <0>         0.1036
      5 C4          0.8823   -0.2702   -1.8485 C.3       1 <0>        -0.1242
      6 C5          2.1198   -0.6688   -1.0420 C.3       1 <0>        -0.1332
      7 C6          2.0594   -2.1635   -0.7205 C.3       1 <0>        -0.1389
      8 H2          2.0314   -2.7340   -1.6489 H         1 <0>         0.1257
      9 C7          0.8006   -2.4586    0.0976 C.3       1 <0>         0.0241
     10 H3          0.8286   -1.8881    1.0260 H         1 <0>         0.1562
     11 C8         -0.4369   -2.0600   -0.7089 C.3       1 <0>        -0.1331
     12 N1          0.7426   -3.8937    0.4063 N.4       1 <0>        -0.3846
     13 C9          1.3154   -4.6562   -0.7095 C.3       1 <0>         0.0020
     14 C10         1.1839   -6.1547   -0.4289 C.3       1 <0>        -0.1399
     15 H4          1.6114   -6.7191   -1.2576 H         1 <0>         0.1513
     16 C11         1.9342   -6.4945    0.8621 C.3       1 <0>        -0.1309
     17 C12         1.3783   -5.6391    2.0043 C.3       1 <0>        -0.1496
     18 C13         1.5026   -4.1598    1.6335 C.3       1 <0>         0.0074
     19 H5          2.5518   -3.9133    1.4712 H         1 <0>         0.1309
     20 C14         0.9484   -3.3010    2.7721 C.3       1 <0>        -0.1892
     21 C15        -0.2720   -6.5119   -0.2747 C.2       1 <0>         0.5191
     22 O1         -1.1216   -5.6527   -0.3789 O.2       1 <0>        -0.5563
     23 N2         -0.6300   -7.7863   -0.0210 N.am      1 <0>        -0.8261
     24 C16         3.2969   -2.5621    0.0860 C.3       1 <0>        -0.0413
     25 N3          4.5072   -2.1646   -0.6456 N.4       1 <0>        -0.6363
     26 H6          0.4486    2.0072   -0.6676 H         1 <0>         0.0584
     27 H7         -1.3282    1.9486   -0.5781 H         1 <0>         0.0647
     28 H8         -0.3746    2.3011    0.8830 H         1 <0>         0.0635
     29 H9          0.5884    0.0174    0.8054 H         1 <0>         0.0565
     30 H10        -1.1883   -0.0412    0.8949 H         1 <0>         0.0727
     31 H11         0.8543   -0.8407   -2.7769 H         1 <0>         0.0781
     32 H12         0.9254    0.7946   -2.0776 H         1 <0>         0.0954
     33 H13         3.0166   -0.4586   -1.6249 H         1 <0>         0.0806
     34 H14         2.1478   -0.0983   -0.1137 H         1 <0>         0.0967
     35 H15        -1.3337   -2.2703   -0.1261 H         1 <0>         0.1005
     36 H16        -0.4649   -2.6305   -1.6373 H         1 <0>         0.0934
     37 H17         0.7824   -4.4109   -1.6281 H         1 <0>         0.1448
     38 H18         2.3687   -4.3991   -0.8218 H         1 <0>         0.1255
     39 H19         1.7965   -7.5500    1.0968 H         1 <0>         0.1083
     40 H20         2.9959   -6.2842    0.7328 H         1 <0>         0.0960
     41 H21         0.3293   -5.8867    2.1671 H         1 <0>         0.0941
     42 H22         1.9447   -5.8350    2.9147 H         1 <0>         0.1254
     43 H23        -0.1313   -3.4359    2.8366 H         1 <0>         0.0898
     44 H24         1.4092   -3.6032    3.7126 H         1 <0>         0.1148
     45 H25         1.1726   -2.2520    2.5783 H         1 <0>         0.0829
     46 H26         0.0495   -8.4735    0.0624 H         1 <0>         0.4133
     47 H27        -1.5671   -8.0162    0.0783 H         1 <0>         0.4211
     48 H28         3.2766   -2.0614    1.0540 H         1 <0>         0.1524
     49 H29         3.3009   -3.6418    0.2354 H         1 <0>         0.1391
     50 H30         4.5260   -2.6281   -1.5417 H         1 <0>         0.4406
     51 H31         4.5035   -1.1651   -0.7840 H         1 <0>         0.4428
     52 H32        -0.2187   -4.1691    0.5408 H         1 <0>         0.4408
     53 H33         5.3233   -2.4274   -0.1138 H         1 <0>         0.4485
@<TRIPOS>BOND
     1    1    2 1
     2    1   26 1
     3    1   27 1
     4    1   28 1
     5    2    3 1
     6    2   29 1
     7    2   30 1
     8    3    4 1
     9    3   11 1
    10    3    5 1
    11    5    6 1
    12    5   31 1
    13    5   32 1
    14    6    7 1
    15    6   33 1
    16    6   34 1
    17    7    8 1
    18    7    9 1
    19    7   24 1
    20    9   10 1
    21    9   11 1
    22    9   12 1
    23   11   35 1
    24   11   36 1
    25   12   18 1
    26   12   13 1
    27   12   52 1
    28   13   14 1
    29   13   37 1
    30   13   38 1
    31   14   15 1
    32   14   16 1
    33   14   21 1
    34   16   17 1
    35   16   39 1
    36   16   40 1
    37   17   18 1
    38   17   41 1
    39   17   42 1
    40   18   19 1
    41   18   20 1
    42   20   43 1
    43   20   44 1
    44   20   45 1
    45   21   22 2
    46   21   23 am
    47   23   46 1
    48   23   47 1
    49   24   25 1
    50   24   48 1
    51   24   49 1
    52   25   50 1
    53   25   51 1
    54   25   53 1
@<TRIPOS>MOLECULE
ZINC52426216
   71    75     0     0     0
SMALL
USER_CHARGES

@<TRIPOS>ATOM
      1 C1         -0.0187    1.5258    0.0104 C.3       1 <0>        -0.1750
      2 C2          0.0021   -0.0041    0.0020 C.3       1 <0>         0.0442
      3 C3          0.7421   -0.5109    1.2415 C.3       1 <0>        -0.1738
      4 C4         -1.4117   -0.5257    0.0127 C.2       1 <0>         0.5029
      5 O1         -1.9390   -0.8271    1.0625 O.2       1 <0>        -0.4297
      6 N1         -2.0902   -0.6573   -1.1443 N.am      1 <0>        -0.7292
      7 C5         -3.4646   -1.1643   -1.1339 C.3       1 <0>         0.1384
      8 H1         -3.8463   -1.2006   -2.1543 H         1 <0>         0.1332
      9 C6         -3.4849   -2.5707   -0.5316 C.3       1 <0>        -0.1149
     10 C7         -2.7196   -3.5114   -1.4264 C.2       1 <0>         0.0727
     11 C8         -1.4225   -3.8749   -1.3044 C.ar      1 <0>        -0.1740
     12 C9         -0.3758   -3.5162   -0.3400 C.ar      1 <0>        -0.0684
     13 C10         0.8574   -4.0535   -0.4802 C.ar      1 <0>        -0.1413
     14 C11         1.1602   -4.9419   -1.5212 C.ar      1 <0>         0.0356
     15 C12         0.2517   -5.3189   -2.4456 C.ar      1 <0>        -0.1860
     16 C13        -1.0774   -4.8154   -2.3942 C.ar      1 <0>         0.3275
     17 N2         -2.1204   -5.0252   -3.1601 N.pl3     1 <0>        -0.5683
     18 C14        -3.2483   -4.2451   -2.6385 C.3       1 <0>         0.0530
     19 C15        -4.3309   -0.2507   -0.3058 C.2       1 <0>         0.5025
     20 O2         -3.8239    0.4960    0.5043 O.2       1 <0>        -0.5006
     21 N3         -5.6691   -0.2633   -0.4654 N.am      1 <0>        -0.5982
     22 C16        -6.2978   -1.1668   -1.4386 C.3       1 <0>         0.0983
     23 C17        -7.1839   -0.3401   -2.3767 C.3       1 <0>        -0.1176
     24 C18        -8.1621    0.4895   -1.5495 C.3       1 <0>        -0.0108
     25 C19        -7.4107    1.4389   -0.6207 C.3       1 <0>        -0.1232
     26 C20        -6.5262    0.6219    0.3351 C.3       1 <0>         0.1113
     27 C21        -9.0732   -0.4395   -0.7263 C.3       1 <0>        -0.1102
     28 C22       -10.2932   -0.6134   -1.6570 C.3       1 <0>         0.1447
     29 H2        -11.2092   -0.6839   -1.0705 H         1 <0>         0.0696
     30 C23       -10.3155    0.6313   -2.5187 C.ar      1 <0>        -0.1369
     31 C24        -9.0875    1.2656   -2.4562 C.ar      1 <0>        -0.0795
     32 C25        -8.8787    2.4324   -3.1719 C.ar      1 <0>        -0.1064
     33 C26        -9.8909    2.9639   -3.9472 C.ar      1 <0>        -0.1081
     34 C27       -11.1174    2.3299   -4.0096 C.ar      1 <0>        -0.1136
     35 C28       -11.3285    1.1661   -3.2959 C.ar      1 <0>        -0.0946
     36 O3        -10.1348   -1.7783   -2.4694 O.3       1 <0>        -0.5596
     37 N4          0.6897   -0.4778   -1.2066 N.4       1 <0>        -0.6384
     38 H3          1.0039    1.9031    0.0027 H         1 <0>         0.1049
     39 H4         -0.5459    1.8868   -0.8726 H         1 <0>         0.0889
     40 H5         -0.5289    1.8773    0.9072 H         1 <0>         0.1229
     41 H6          0.2319   -0.1594    2.1383 H         1 <0>         0.1281
     42 H7          0.7568   -1.6008    1.2356 H         1 <0>         0.0818
     43 H8          1.7647   -0.1336    1.2338 H         1 <0>         0.1046
     44 H9         -1.6686   -0.4162   -1.9840 H         1 <0>         0.4005
     45 H10        -3.0217   -2.5501    0.4549 H         1 <0>         0.1385
     46 H11        -4.5159   -2.9127   -0.4419 H         1 <0>         0.1361
     47 H12        -0.5871   -2.8330    0.4694 H         1 <0>         0.1566
     48 H13         1.6291   -3.7909    0.2283 H         1 <0>         0.1637
     49 H14         2.1617   -5.3409   -1.5865 H         1 <0>         0.1691
     50 H15         0.5358   -6.0064   -3.2286 H         1 <0>         0.1688
     51 H16        -4.0646   -4.9075   -2.3503 H         1 <0>         0.1870
     52 H17        -3.5891   -3.5328   -3.3899 H         1 <0>         0.1805
     53 H18        -5.5262   -1.6744   -2.0176 H         1 <0>         0.0732
     54 H19        -6.9074   -1.9024   -0.9138 H         1 <0>         0.0889
     55 H20        -6.5599    0.3235   -2.9752 H         1 <0>         0.0683
     56 H21        -7.7397   -1.0083   -3.0345 H         1 <0>         0.0946
     57 H22        -6.7879    2.1095   -1.2128 H         1 <0>         0.0713
     58 H23        -8.1261    2.0231   -0.0419 H         1 <0>         0.0872
     59 H24        -7.1530    0.0236    0.9964 H         1 <0>         0.0808
     60 H25        -5.9054    1.2950    0.9264 H         1 <0>         0.0995
     61 H26        -8.5861   -1.3971   -0.5425 H         1 <0>         0.0887
     62 H27        -9.3650    0.0345    0.2109 H         1 <0>         0.0907
     63 H28        -7.9209    2.9290   -3.1236 H         1 <0>         0.1170
     64 H29        -9.7239    3.8739   -4.5043 H         1 <0>         0.1281
     65 H30       -11.9100    2.7442   -4.6150 H         1 <0>         0.1299
     66 H31       -12.2872    0.6712   -3.3452 H         1 <0>         0.1233
     67 H32       -10.8715   -1.9387   -3.0749 H         1 <0>         0.3850
     68 H33         1.6363   -0.1286   -1.2138 H         1 <0>         0.4502
     69 H34         0.7033   -1.4867   -1.2121 H         1 <0>         0.4221
     70 H35        -2.1438   -5.6027   -3.9391 H         1 <0>         0.4624
     71 H36         0.2017   -0.1436   -2.0240 H         1 <0>         0.4311
@<TRIPOS>BOND
     1    1    2 1
     2    1   38 1
     3    1   39 1
     4    1   40 1
     5    2    3 1
     6    2    4 1
     7    2   37 1
     8    3   41 1
     9    3   42 1
    10    3   43 1
    11    4    5 2
    12    4    6 am
    13    6    7 1
    14    6   44 1
    15    7    8 1
    16    7    9 1
    17    7   19 1
    18    9   10 1
    19    9   45 1
    20    9   46 1
    21   10   18 1
    22   10   11 2
    23   11   16 ar
    24   11   12 ar
    25   12   13 ar
    26   12   47 1
    27   13   14 ar
    28   13   48 1
    29   14   15 ar
    30   14   49 1
    31   15   16 ar
    32   15   50 1
    33   16   17 2
    34   17   18 1
    35   17   70 1
    36   18   51 1
    37   18   52 1
    38   19   20 2
    39   19   21 am
    40   21   26 1
    41   21   22 1
    42   22   23 1
    43   22   53 1
    44   22   54 1
    45   23   24 1
    46   23   55 1
    47   23   56 1
    48   24   31 1
    49   24   25 1
    50   24   27 1
    51   25   26 1
    52   25   57 1
    53   25   58 1
    54   26   59 1
    55   26   60 1
    56   27   28 1
    57   27   61 1
    58   27   62 1
    59   28   29 1
    60   28   30 1
    61   28   36 1
    62   30   35 ar
    63   30   31 ar
    64   31   32 ar
    65   32   33 ar
    66   32   63 1
    67   33   34 ar
    68   33   64 1
    69   34   35 ar
    70   34   65 1
    71   35   66 1
    72   36   67 1
    73   37   68 1
    74   37   69 1
    75   37   71 1
@<TRIPOS>MOLECULE
ZINC63684375
   55    57     0     0     0
SMALL
USER_CHARGES

@<TRIPOS>ATOM
      1 C1         -0.0187    1.5258    0.0104 C.3       1 <0>        -0.1756
      2 C2          0.0021   -0.0041    0.0020 C.3       1 <0>         0.0984
      3 N1          0.6878   -0.4765   -1.2033 N.am      1 <0>        -0.6058
      4 C3          2.1353   -0.7012   -1.1821 C.3       1 <0>         0.1090
      5 C4          2.4212   -2.1448   -0.7635 C.3       1 <0>        -0.1713
      6 C5         -0.0130   -0.7045   -2.3317 C.2       1 <0>         0.5244
      7 O1          0.5546   -1.0956   -3.3296 O.2       1 <0>        -0.5040
      8 C6         -1.5021   -0.4734   -2.3536 C.3       1 <0>        -0.1383
      9 S1         -2.1508   -0.8661   -4.0015 S.3       1 <0>        -0.0296
     10 C7         -3.9298   -0.5400   -3.8619 C.3       1 <0>         0.2144
     11 H1         -4.4307   -0.7574   -4.8053 H         1 <0>         0.1266
     12 N2         -4.5184   -1.3450   -2.7667 N.3       1 <0>        -0.5097
     13 N3         -5.5167   -0.4835   -2.1302 N.3       1 <0>        -0.5151
     14 C8         -5.4789    0.7966   -2.8743 C.3       1 <0>         0.1850
     15 H2         -6.2463    0.8096   -3.6482 H         1 <0>         0.1534
     16 O2         -4.1620    0.8323   -3.4720 O.3       1 <0>        -0.3887
     17 C9         -5.6669    1.9759   -1.9177 C.3       1 <0>         0.0320
     18 H3         -6.5877    1.8404   -1.3505 H         1 <0>         0.1775
     19 C10        -5.7490    3.2757   -2.7206 C.3       1 <0>        -0.1007
     20 C11        -6.0565    4.4216   -1.7913 C.2       1 <0>        -0.0056
     21 C12        -5.1674    5.2629   -1.2158 C.ar      1 <0>        -0.1437
     22 C13        -3.7041    5.3586   -1.2794 C.ar      1 <0>        -0.0793
     23 C14        -3.0791    6.3299   -0.5758 C.ar      1 <0>        -0.0996
     24 C15        -3.7920    7.2449    0.2110 C.ar      1 <0>         0.0487
     25 C16        -5.1372    7.2206    0.3195 C.ar      1 <0>        -0.1924
     26 C17        -5.8969    6.2414   -0.3782 C.ar      1 <0>         0.3312
     27 N4         -7.1868    6.0139   -0.4336 N.pl3     1 <0>        -0.5611
     28 C18        -7.4220    4.8677   -1.3187 C.3       1 <0>         0.0607
     29 N5         -4.5275    2.0427   -0.9929 N.4       1 <0>        -0.6453
     30 H4          1.0039    1.9031    0.0027 H         1 <0>         0.0721
     31 H5         -0.5459    1.8868   -0.8726 H         1 <0>         0.0468
     32 H6         -0.5289    1.8773    0.9072 H         1 <0>         0.0683
     33 H7          0.5293   -0.3651    0.8851 H         1 <0>         0.0921
     34 H8         -1.0205   -0.3814    0.0098 H         1 <0>         0.0722
     35 H9          2.5453   -0.5232   -2.1762 H         1 <0>         0.0899
     36 H10         2.5986   -0.0180   -0.4703 H         1 <0>         0.0830
     37 H11         1.9579   -2.8280   -1.4752 H         1 <0>         0.0613
     38 H12         3.4982   -2.3119   -0.7477 H         1 <0>         0.0755
     39 H13         2.0113   -2.3228    0.2307 H         1 <0>         0.0568
     40 H14        -1.9801   -1.1142   -1.6127 H         1 <0>         0.1213
     41 H15        -1.7112    0.5706   -2.1201 H         1 <0>         0.0972
     42 H16        -4.9432   -2.1872   -3.1250 H         1 <0>         0.3968
     43 H17        -5.3022   -0.3412   -1.1546 H         1 <0>         0.3488
     44 H18        -4.7959    3.4566   -3.2176 H         1 <0>         0.1399
     45 H19        -6.5382    3.1920   -3.4677 H         1 <0>         0.1629
     46 H20        -3.1350    4.6634   -1.8788 H         1 <0>         0.1593
     47 H21        -2.0024    6.4021   -0.6212 H         1 <0>         0.1674
     48 H22        -3.2423    8.0002    0.7530 H         1 <0>         0.1716
     49 H23        -5.6393    7.9484    0.9396 H         1 <0>         0.1710
     50 H24        -8.0349    5.1665   -2.1691 H         1 <0>         0.1870
     51 H25        -7.9099    4.0639   -0.7673 H         1 <0>         0.1786
     52 H26        -4.6514    2.8204   -0.3621 H         1 <0>         0.4341
     53 H27        -4.4733    1.1855   -0.4635 H         1 <0>         0.4421
     54 H28        -7.8715    6.5212    0.0298 H         1 <0>         0.4651
     55 H29        -3.6750    2.1681   -1.5180 H         1 <0>         0.4430
@<TRIPOS>BOND
     1    1    2 1
     2    1   30 1
     3    1   31 1
     4    1   32 1
     5    2    3 1
     6    2   33 1
     7    2   34 1
     8    3    4 1
     9    3    6 am
    10    4    5 1
    11    4   35 1
    12    4   36 1
    13    5   37 1
    14    5   38 1
    15    5   39 1
    16    6    7 2
    17    6    8 1
    18    8    9 1
    19    8   40 1
    20    8   41 1
    21    9   10 1
    22   10   11 1
    23   10   16 1
    24   10   12 1
    25   12   13 1
    26   12   42 1
    27   13   14 1
    28   13   43 1
    29   14   15 1
    30   14   16 1
    31   14   17 1
    32   17   18 1
    33   17   19 1
    34   17   29 1
    35   19   20 1
    36   19   44 1
    37   19   45 1
    38   20   28 1
    39   20   21 2
    40   21   26 ar
    41   21   22 ar
    42   22   23 ar
    43   22   46 1
    44   23   24 ar
    45   23   47 1
    46   24   25 ar
    47   24   48 1
    48   25   26 ar
    49   25   49 1
    50   26   27 2
    51   27   28 1
    52   27   54 1
    53   28   50 1
    54   28   51 1
    55   29   52 1
    56   29   53 1
    57   29   55 1
@<TRIPOS>MOLECULE
ZINC04299562
   62    65     0     0     0
SMALL
USER_CHARGES
2-[[1-(2-hydroxy-3-indol-1-yl-propyl)-4-piperidyl]amino]cyclohexan-1-ol
@<TRIPOS>ATOM
      1 C1         -3.2834   -4.4691   -3.0004 C.ar      1 <0>        -0.1413
      2 C2         -3.4640   -3.0950   -3.0816 C.ar      1 <0>        -0.0892
      3 C3         -2.4837   -2.2306   -2.6463 C.ar      1 <0>        -0.1441
      4 C4         -1.3002   -2.7372   -2.1189 C.ar      1 <0>         0.0907
      5 C5         -1.1221   -4.1302   -2.0388 C.ar      1 <0>        -0.1056
      6 C6         -2.1288   -4.9881   -2.4863 C.ar      1 <0>        -0.0615
      7 C7          0.2027   -4.3357   -1.4485 C.2       1 <0>        -0.1831
      8 C8          0.7244   -3.1196   -1.2225 C.2       1 <0>         0.0467
      9 N1         -0.1615   -2.1523   -1.6120 N.pl3     1 <0>        -0.4877
     10 C9          0.0698   -0.7092   -1.5106 C.3       1 <0>         0.0885
     11 C10        -0.5478   -0.1836   -0.2132 C.3       1 <0>         0.0611
     12 H1         -1.6019   -0.4586   -0.1752 H         1 <0>         0.1285
     13 C11        -0.4162    1.3400   -0.1664 C.3       1 <0>        -0.0414
     14 C12        -2.4590    1.6131    1.1035 C.3       1 <0>        -0.0019
     15 C13        -3.0187    2.0167    2.4694 C.3       1 <0>        -0.1708
     16 C14        -2.7150    3.4959    2.7232 C.3       1 <0>         0.0173
     17 C15        -1.2021    3.7189    2.6446 C.3       1 <0>        -0.1685
     18 C16        -0.6951    3.2659    1.2736 C.3       1 <0>         0.0032
     19 C17        -3.5051    5.3113    4.1170 C.3       1 <0>         0.0390
     20 H2         -2.8103    5.8580    3.4794 H         1 <0>         0.1452
     21 C18        -4.9367    5.5477    3.6315 C.3       1 <0>        -0.1401
     22 C19        -5.2559    7.0427    3.6937 C.3       1 <0>        -0.1208
     23 C20        -5.1189    7.5339    5.1362 C.3       1 <0>        -0.1325
     24 C21        -3.6874    7.2974    5.6217 C.3       1 <0>        -0.1511
     25 C22        -3.3681    5.8024    5.5595 C.3       1 <0>         0.0864
     26 H3         -4.0629    5.2557    6.1970 H         1 <0>         0.0845
     27 O1         -2.0311    5.5816    6.0129 O.3       1 <0>        -0.5820
     28 O2          0.1343   -0.7553    0.9048 O.3       1 <0>        -0.5443
     29 H4         -4.0619   -5.1330   -3.3460 H         1 <0>         0.1291
     30 H5         -4.3821   -2.6997   -3.4904 H         1 <0>         0.1280
     31 H6         -2.6336   -1.1632   -2.7140 H         1 <0>         0.1105
     32 H7         -1.9955   -6.0582   -2.4259 H         1 <0>         0.1288
     33 H8          0.6724   -5.2853   -1.2388 H         1 <0>         0.1523
     34 H9          1.6982   -2.9325   -0.7946 H         1 <0>         0.1685
     35 H10        -0.3901   -0.2069   -2.3616 H         1 <0>         0.1037
     36 H11         1.1419   -0.5123   -1.5085 H         1 <0>         0.1056
     37 H12         0.6379    1.6149   -0.2044 H         1 <0>         0.1441
     38 H13        -0.9364    1.7760   -1.0192 H         1 <0>         0.1501
     39 H14        -2.9351    2.2096    0.3252 H         1 <0>         0.1449
     40 H15        -2.6611    0.5568    0.9259 H         1 <0>         0.1492
     41 H16        -2.5531    1.4110    3.2469 H         1 <0>         0.1143
     42 H17        -4.0972    1.8594    2.4818 H         1 <0>         0.1380
     43 H18        -3.2126    4.1046    1.9683 H         1 <0>         0.1541
     44 H19        -0.7080    3.1400    3.4248 H         1 <0>         0.1140
     45 H20        -0.9822    4.7776    2.7824 H         1 <0>         0.1371
     46 H21         0.3839    3.4101    1.2196 H         1 <0>         0.1501
     47 H22        -1.1795    3.8547    0.4946 H         1 <0>         0.1439
     48 H23        -5.0343    5.1978    2.6038 H         1 <0>         0.0916
     49 H24        -5.6315    5.0010    4.2690 H         1 <0>         0.0942
     50 H25        -4.5611    7.5895    3.0562 H         1 <0>         0.0773
     51 H26        -6.2758    7.2112    3.3478 H         1 <0>         0.0934
     52 H27        -5.3464    8.5990    5.1805 H         1 <0>         0.0889
     53 H28        -5.8137    6.9871    5.7737 H         1 <0>         0.0754
     54 H29        -2.9926    7.8442    4.9842 H         1 <0>         0.0840
     55 H30        -3.5898    7.6473    6.6494 H         1 <0>         0.0926
     56 H31        -1.8714    5.8699    6.9220 H         1 <0>         0.4157
     57 H32         1.0790   -0.5513    0.9355 H         1 <0>         0.3912
     58 N2         -0.9964    1.8289    1.1014 N.4       1 <0>        -0.3950
     59 H33        -0.5815    1.3059    1.8815 H         1 <0>         0.4357
     60 N3         -3.1997    3.8690    4.0654 N.4       1 <0>        -0.5149
     61 H34        -2.4754    3.6511    4.7598 H         1 <0>         0.4425
     62 H35        -4.0503    3.3349    4.2789 H         1 <0>         0.4361
@<TRIPOS>BOND
     1    1    6 ar
     2    1    2 ar
     3    1   29 1
     4    2    3 ar
     5    2   30 1
     6    3    4 ar
     7    3   31 1
     8    4    9 1
     9    4    5 ar
    10    5    6 ar
    11    5    7 1
    12    6   32 1
    13    7    8 2
    14    7   33 1
    15    8    9 1
    16    8   34 1
    17    9   10 1
    18   10   11 1
    19   10   35 1
    20   10   36 1
    21   11   12 1
    22   11   13 1
    23   11   28 1
    24   13   37 1
    25   13   38 1
    26   13   58 1
    27   14   15 1
    28   14   39 1
    29   14   40 1
    30   14   58 1
    31   15   16 1
    32   15   41 1
    33   15   42 1
    34   16   17 1
    35   16   43 1
    36   16   60 1
    37   17   18 1
    38   17   44 1
    39   17   45 1
    40   18   46 1
    41   18   47 1
    42   18   58 1
    43   19   20 1
    44   19   25 1
    45   19   21 1
    46   19   60 1
    47   21   22 1
    48   21   48 1
    49   21   49 1
    50   22   23 1
    51   22   50 1
    52   22   51 1
    53   23   24 1
    54   23   52 1
    55   23   53 1
    56   24   25 1
    57   24   54 1
    58   24   55 1
    59   25   26 1
    60   25   27 1
    61   27   56 1
    62   28   57 1
    63   58   59 1
    64   60   61 1
    65   60   62 1
@<TRIPOS>MOLECULE
ZINC38541254
   59    60     0     0     0
SMALL
USER_CHARGES

@<TRIPOS>ATOM
      1 C1         -0.2589    1.7789   -0.4172 C.3       1 <0>        -0.1880
      2 C2         -0.2292    0.2516   -0.3311 C.3       1 <0>         0.1361
      3 C3          0.4565   -0.1727    0.9692 C.3       1 <0>        -0.1880
      4 C4         -1.6606   -0.2883   -0.3524 C.3       1 <0>        -0.1450
      5 O1          0.4949   -0.2744   -1.4451 O.3       1 <0>        -0.3504
      6 C5          1.7801    0.1057   -1.5732 C.2       1 <0>         0.6544
      7 O2          2.2735    0.8633   -0.7613 O.2       1 <0>        -0.5454
      8 N1          2.5195   -0.3541   -2.6019 N.am      1 <0>        -0.7194
      9 C6          3.9180    0.0595   -2.7413 C.3       1 <0>         0.1531
     10 H1          4.3740    0.1865   -1.7594 H         1 <0>         0.1400
     11 C7          4.0108    1.3737   -3.5501 C.3       1 <0>        -0.1626
     12 C8          5.2659    1.1507   -4.4308 C.3       1 <0>         0.0023
     13 N2          5.1805   -0.2891   -4.7857 N.4       1 <0>        -0.3899
     14 C9          4.7028   -0.9785   -3.5648 C.3       1 <0>        -0.0287
     15 C10         6.5055   -0.7963   -5.1668 C.3       1 <0>         0.0727
     16 H2          7.2031   -0.6450   -4.3431 H         1 <0>         0.1630
     17 C11         6.4078   -2.2897   -5.4848 C.3       1 <0>        -0.0270
     18 N3          7.7534   -2.8285   -5.7234 N.4       1 <0>        -0.6296
     19 C12         6.9963   -0.0547   -6.3835 C.ar      1 <0>        -0.2005
     20 C13         6.1154    0.2598   -7.4016 C.ar      1 <0>        -0.0969
     21 C14         6.5608    0.9399   -8.5196 C.ar      1 <0>        -0.1644
     22 C15         7.8927    1.3084   -8.6215 C.ar      1 <0>         0.1566
     23 C16         8.7792    0.9923   -7.5966 C.ar      1 <0>         0.1267
     24 C17         8.3253    0.3147   -6.4764 C.ar      1 <0>        -0.1711
     25 O3         10.0873    1.3519   -7.6919 O.3       1 <0>        -0.2874
     26 C18        10.9395    0.9943   -6.6020 C.3       1 <0>         0.0199
     27 O4          8.3326    1.9772   -9.7209 O.3       1 <0>        -0.2867
     28 C19         7.3667    2.2675  -10.7333 C.3       1 <0>         0.0158
     29 H3          0.7609    2.1635   -0.4020 H         1 <0>         0.0839
     30 H4         -0.7474    2.0811   -1.3436 H         1 <0>         0.0619
     31 H5         -0.8112    2.1801    0.4325 H         1 <0>         0.0798
     32 H6         -0.0958    0.2286    1.8189 H         1 <0>         0.0798
     33 H7          0.4776   -1.2607    1.0306 H         1 <0>         0.0620
     34 H8          1.4763    0.2120    0.9844 H         1 <0>         0.0840
     35 H9         -2.1492    0.0139   -1.2787 H         1 <0>         0.0696
     36 H10        -1.6395   -1.3764   -0.2910 H         1 <0>         0.0696
     37 H11        -2.2130    0.1129    0.4973 H         1 <0>         0.0896
     38 H12         2.1257   -0.9589   -3.2500 H         1 <0>         0.4104
     39 H13         3.1241    1.5089   -4.1695 H         1 <0>         0.1093
     40 H14         4.1522    2.2263   -2.8858 H         1 <0>         0.1344
     41 H15         5.2228    1.7709   -5.3261 H         1 <0>         0.1458
     42 H16         6.1745    1.3540   -3.8641 H         1 <0>         0.1442
     43 H17         5.5516   -1.3454   -2.9877 H         1 <0>         0.1522
     44 H18         4.0494   -1.8073   -3.8372 H         1 <0>         0.1474
     45 H19         5.9515   -2.8112   -4.6435 H         1 <0>         0.1580
     46 H20         5.7961   -2.4322   -6.3757 H         1 <0>         0.1588
     47 H21         8.2014   -2.3015   -6.4580 H         1 <0>         0.4428
     48 H22         8.2990   -2.7574   -4.8777 H         1 <0>         0.4430
     49 H23         5.0771   -0.0269   -7.3234 H         1 <0>         0.1288
     50 H24         5.8708    1.1837   -9.3139 H         1 <0>         0.1565
     51 H25         9.0105    0.0714   -5.6778 H         1 <0>         0.1474
     52 H26        11.9533    1.3393   -6.8051 H         1 <0>         0.1188
     53 H27        10.5738    1.4599   -5.6868 H         1 <0>         0.0629
     54 H28        10.9415   -0.0892   -6.4827 H         1 <0>         0.0561
     55 H29         6.9415    1.3362  -11.1076 H         1 <0>         0.0667
     56 H30         6.5737    2.8855  -10.3123 H         1 <0>         0.0671
     57 H31         7.8481    2.8021  -11.5522 H         1 <0>         0.1203
     58 H32         7.6840   -3.7968   -5.9985 H         1 <0>         0.4574
     59 H33         4.5248   -0.4230   -5.5409 H         1 <0>         0.4317
@<TRIPOS>BOND
     1    1    2 1
     2    1   29 1
     3    1   30 1
     4    1   31 1
     5    2    3 1
     6    2    4 1
     7    2    5 1
     8    3   32 1
     9    3   33 1
    10    3   34 1
    11    4   35 1
    12    4   36 1
    13    4   37 1
    14    5    6 1
    15    6    7 2
    16    6    8 am
    17    8    9 1
    18    8   38 1
    19    9   10 1
    20    9   14 1
    21    9   11 1
    22   11   12 1
    23   11   39 1
    24   11   40 1
    25   12   13 1
    26   12   41 1
    27   12   42 1
    28   13   14 1
    29   13   15 1
    30   13   59 1
    31   14   43 1
    32   14   44 1
    33   15   16 1
    34   15   17 1
    35   15   19 1
    36   17   18 1
    37   17   45 1
    38   17   46 1
    39   18   47 1
    40   18   48 1
    41   18   58 1
    42   19   24 ar
    43   19   20 ar
    44   20   21 ar
    45   20   49 1
    46   21   22 ar
    47   21   50 1
    48   22   23 ar
    49   22   27 1
    50   23   24 ar
    51   23   25 1
    52   24   51 1
    53   25   26 1
    54   26   52 1
    55   26   53 1
    56   26   54 1
    57   27   28 1
    58   28   55 1
    59   28   56 1
    60   28   57 1
@<TRIPOS>MOLECULE
ZINC43287427
   44    44     0     0     0
SMALL
USER_CHARGES

@<TRIPOS>ATOM
      1 C1         -0.0187    1.5258    0.0104 C.3       1 <0>        -0.1735
      2 C2          0.0021   -0.0041    0.0020 C.3       1 <0>        -0.1770
      3 C3          0.7182   -0.4975   -1.2568 C.3       1 <0>         0.0074
      4 H1          1.7103   -0.0491   -1.3098 H         1 <0>         0.1751
      5 C4          0.8493   -2.0210   -1.2049 C.3       1 <0>         0.1246
      6 H2          1.4365   -2.3643   -2.0566 H         1 <0>         0.1793
      7 C5         -0.5215   -2.6451   -1.2556 C.2       1 <0>        -0.3350
      8 C6         -1.1680   -3.2006   -2.3096 C.2       1 <0>        -0.0402
      9 C7         -2.4362   -3.7183   -2.1210 C.2       1 <0>        -0.1672
     10 C8         -2.9952   -3.6548   -0.8874 C.2       1 <0>        -0.0542
     11 S1         -1.7119   -2.8516    0.0588 S.3       1 <0>         0.1442
     12 Br1        -3.3769   -4.5024   -3.5619 Br        1 <0>         0.0255
     13 N1          1.5198   -2.4126    0.0420 N.4       1 <0>        -0.3778
     14 C9          1.6457   -3.8754    0.0918 C.3       1 <0>        -0.0598
     15 C10         2.8560   -1.8043    0.0914 C.3       1 <0>        -0.0601
     16 C11         3.5055   -2.1089    1.4428 C.3       1 <0>         0.0842
     17 H3          3.5927   -3.1880    1.5689 H         1 <0>         0.1403
     18 C12         4.8972   -1.4753    1.4942 C.3       1 <0>         0.0308
     19 O1          5.5495   -1.8562    2.7072 O.3       1 <0>        -0.3751
     20 C13         6.8636   -1.3147    2.8553 C.3       1 <0>         0.0273
     21 O2          2.6979   -1.5704    2.4915 O.3       1 <0>        -0.5391
     22 N2         -0.0570   -0.1128   -2.4438 N.4       1 <0>        -0.6272
     23 H4          1.0039    1.9031    0.0027 H         1 <0>         0.0815
     24 H5         -0.5459    1.8868   -0.8726 H         1 <0>         0.0653
     25 H6         -0.5289    1.8773    0.9072 H         1 <0>         0.1005
     26 H7          0.5293   -0.3651    0.8851 H         1 <0>         0.1060
     27 H8         -1.0205   -0.3814    0.0098 H         1 <0>         0.1116
     28 H9         -0.6998   -3.2379   -3.2821 H         1 <0>         0.1612
     29 H10        -3.9636   -4.0039   -0.5607 H         1 <0>         0.2204
     30 H11         2.1432   -4.1660    1.0170 H         1 <0>         0.1443
     31 H12         0.6542   -4.3268    0.0552 H         1 <0>         0.1309
     32 H13         2.2329   -4.2187   -0.7599 H         1 <0>         0.1363
     33 H14         3.4720   -2.2150   -0.7086 H         1 <0>         0.1591
     34 H15         2.7688   -0.7251   -0.0348 H         1 <0>         0.1372
     35 H16         5.4844   -1.8186    0.6425 H         1 <0>         0.0710
     36 H17         4.8038   -0.3899    1.4572 H         1 <0>         0.0639
     37 H18         7.4917   -1.6547    2.0318 H         1 <0>         0.0507
     38 H19         6.8111   -0.2260    2.8466 H         1 <0>         0.0499
     39 H20         7.2905   -1.6503    3.8004 H         1 <0>         0.1022
     40 H21         2.5772   -0.6123    2.4425 H         1 <0>         0.3865
     41 H22         0.4152   -0.4382   -3.2739 H         1 <0>         0.4453
     42 H23        -0.9754   -0.5279   -2.3947 H         1 <0>         0.4400
     43 H24        -0.1435    0.8919   -2.4780 H         1 <0>         0.4535
     44 H25         0.9763   -2.0948    0.8304 H         1 <0>         0.4306
@<TRIPOS>BOND
     1    1    2 1
     2    1   23 1
     3    1   24 1
     4    1   25 1
     5    2    3 1
     6    2   26 1
     7    2   27 1
     8    3    4 1
     9    3    5 1
    10    3   22 1
    11    5    6 1
    12    5    7 1
    13    5   13 1
    14    7   11 1
    15    7    8 2
    16    8    9 1
    17    8   28 1
    18    9   10 2
    19    9   12 1
    20   10   11 1
    21   10   29 1
    22   13   14 1
    23   13   15 1
    24   13   44 1
    25   14   30 1
    26   14   31 1
    27   14   32 1
    28   15   16 1
    29   15   33 1
    30   15   34 1
    31   16   17 1
    32   16   18 1
    33   16   21 1
    34   18   19 1
    35   18   35 1
    36   18   36 1
    37   19   20 1
    38   20   37 1
    39   20   38 1
    40   20   39 1
    41   21   40 1
    42   22   41 1
    43   22   42 1
    44   22   43 1
@<TRIPOS>MOLECULE
ZINC22937276
   55    55     0     0     0
SMALL
USER_CHARGES

@<TRIPOS>ATOM
      1 C1         -1.7454    1.9378   -0.1333 C.3       1 <0>        -0.1554
      2 C2         -2.2393    0.4928   -0.0393 C.3       1 <0>         0.0654
      3 O1         -1.1208   -0.3960   -0.0710 O.3       1 <0>        -0.3209
      4 C3         -1.3789   -1.7198    0.1033 C.ar      1 <0>         0.1198
      5 C4         -1.5280   -2.5488   -0.9968 C.ar      1 <0>        -0.0500
      6 C5         -1.7899   -3.8944   -0.8179 C.ar      1 <0>        -0.1079
      7 C6         -1.9040   -4.4159    0.4574 C.ar      1 <0>        -0.1478
      8 C7         -1.7568   -3.5942    1.5593 C.ar      1 <0>        -0.1820
      9 C8         -1.4880   -2.2458    1.3870 C.ar      1 <0>         0.1188
     10 O2         -1.3369   -1.4372    2.4700 O.3       1 <0>        -0.2938
     11 C9         -1.4622   -2.0460    3.7567 C.3       1 <0>         0.0216
     12 C10        -2.1901   -5.8834    0.6467 C.3       1 <0>         0.0513
     13 N1         -0.9233   -6.6234    0.7223 N.4       1 <0>        -0.5051
     14 C11        -1.2022   -8.0538    0.9068 C.3       1 <0>        -0.0374
     15 C12         0.1172   -8.8246    0.9855 C.3       1 <0>        -0.0372
     16 N2         -0.1617  -10.2550    1.1701 N.4       1 <0>        -0.5008
     17 C13         1.1051  -10.9951    1.2456 C.3       1 <0>        -0.0477
     18 C14         0.8147  -12.4849    1.4378 C.3       1 <0>         0.0819
     19 H1          0.1788  -12.6212    2.3126 H         1 <0>         0.1267
     20 C15         2.1304  -13.2389    1.6412 C.3       1 <0>        -0.1930
     21 O3          0.1481  -12.9935    0.2806 O.3       1 <0>        -0.5556
     22 C16        -1.4053   -1.9836   -2.3884 C.3       1 <0>        -0.0574
     23 C17         0.0485   -1.9275   -2.7814 C.2       1 <0>        -0.1531
     24 C18         0.4574   -2.5354   -3.8674 C.2       1 <0>        -0.1824
     25 H2         -2.5987    2.6157   -0.1091 H         1 <0>         0.0838
     26 H3         -1.0871    2.1522    0.7085 H         1 <0>         0.0695
     27 H4         -1.1987    2.0750   -1.0662 H         1 <0>         0.0691
     28 H5         -2.7860    0.3556    0.8937 H         1 <0>         0.0588
     29 H6         -2.8977    0.2783   -0.8811 H         1 <0>         0.0581
     30 H7         -1.9060   -4.5395   -1.6762 H         1 <0>         0.1379
     31 H8         -1.8467   -4.0040    2.5545 H         1 <0>         0.1401
     32 H9         -1.3200   -1.2920    4.5308 H         1 <0>         0.1143
     33 H10        -2.4547   -2.4856    3.8556 H         1 <0>         0.0600
     34 H11        -0.7074   -2.8249    3.8651 H         1 <0>         0.0558
     35 H12        -2.7510   -6.0280    1.5701 H         1 <0>         0.1442
     36 H13        -2.7760   -6.2510   -0.1957 H         1 <0>         0.1471
     37 H14        -0.4041   -6.4895   -0.1324 H         1 <0>         0.4368
     38 H15        -1.7631   -8.1985    1.8302 H         1 <0>         0.1555
     39 H16        -1.7881   -8.4215    0.0644 H         1 <0>         0.1564
     40 H17         0.6781   -8.6799    0.0622 H         1 <0>         0.1545
     41 H18         0.7031   -8.4570    1.8279 H         1 <0>         0.1545
     42 H19        -0.6809  -10.3890    2.0248 H         1 <0>         0.4376
     43 H20         1.6660  -10.8504    0.3223 H         1 <0>         0.1423
     44 H21         1.6910  -10.6275    2.0880 H         1 <0>         0.1491
     45 H22         2.6388  -12.8510    2.5238 H         1 <0>         0.0821
     46 H23         1.9235  -14.3003    1.7781 H         1 <0>         0.0943
     47 H24         2.7662  -13.1026    0.7664 H         1 <0>         0.0748
     48 H25         0.6569  -12.9051   -0.5370 H         1 <0>         0.3932
     49 H26        -1.9465   -2.6204   -3.0882 H         1 <0>         0.0851
     50 H27        -1.8268   -0.9787   -2.4109 H         1 <0>         0.0940
     51 H28         0.7532   -1.3861   -2.1677 H         1 <0>         0.1151
     52 H29        -0.2474   -3.0768   -4.4811 H         1 <0>         0.0978
     53 H30         1.4992   -2.4952   -4.1490 H         1 <0>         0.1040
     54 H31        -0.3810   -6.2831    1.5021 H         1 <0>         0.4353
     55 H32        -0.7040  -10.5953    0.3902 H         1 <0>         0.4408
@<TRIPOS>BOND
     1    1    2 1
     2    1   25 1
     3    1   26 1
     4    1   27 1
     5    2    3 1
     6    2   28 1
     7    2   29 1
     8    3    4 1
     9    4    9 ar
    10    4    5 ar
    11    5    6 ar
    12    5   22 1
    13    6    7 ar
    14    6   30 1
    15    7    8 ar
    16    7   12 1
    17    8    9 ar
    18    8   31 1
    19    9   10 1
    20   10   11 1
    21   11   32 1
    22   11   33 1
    23   11   34 1
    24   12   13 1
    25   12   35 1
    26   12   36 1
    27   13   14 1
    28   13   37 1
    29   13   54 1
    30   14   15 1
    31   14   38 1
    32   14   39 1
    33   15   16 1
    34   15   40 1
    35   15   41 1
    36   16   17 1
    37   16   42 1
    38   16   55 1
    39   17   18 1
    40   17   43 1
    41   17   44 1
    42   18   19 1
    43   18   20 1
    44   18   21 1
    45   20   45 1
    46   20   46 1
    47   20   47 1
    48   21   48 1
    49   22   23 1
    50   22   49 1
    51   22   50 1
    52   23   24 2
    53   23   51 1
    54   24   52 1
    55   24   53 1
@<TRIPOS>MOLECULE
ZINC66242728
   58    59     0     0     0
SMALL
USER_CHARGES

@<TRIPOS>ATOM
      1 C1         -0.3185    1.7029    0.2524 C.3       1 <0>        -0.1585
      2 C2         -0.0697    0.1945    0.1904 C.3       1 <0>        -0.1089
      3 C3          0.6238   -0.2613    1.4758 C.3       1 <0>        -0.1743
      4 C4         -1.4055   -0.5371    0.0445 C.3       1 <0>         0.0122
      5 H1         -2.0749   -0.2354    0.8500 H         1 <0>         0.1558
      6 C5         -2.0368   -0.1823   -1.3033 C.3       1 <0>         0.0738
      7 N1         -3.4184   -0.6683   -1.3384 N.pl3     1 <0>        -0.7249
      8 C6         -4.1470   -0.5851   -2.5013 C.cat     1 <0>         0.7317
      9 N2         -5.3762   -1.0175   -2.5325 N.pl3     1 <0>        -0.6342
     10 C7         -6.1526   -0.9288   -3.7717 C.3       1 <0>         0.0672
     11 C8         -7.5524   -1.5009   -3.5386 C.3       1 <0>         0.0656
     12 H2         -7.4765   -2.5115   -3.1372 H         1 <0>         0.1009
     13 C9         -8.3372   -1.5230   -4.8679 C.3       1 <0>        -0.1490
     14 C10        -9.7639   -1.1088   -4.4152 C.3       1 <0>        -0.1578
     15 C11        -9.4333   -0.1186   -3.2701 C.3       1 <0>         0.0476
     16 O1         -8.2718   -0.6670   -2.6228 O.3       1 <0>        -0.3810
     17 N3         -3.5791   -0.0457   -3.6312 N.pl3     1 <0>        -0.8047
     18 N4         -1.1796   -1.9871    0.1128 N.4       1 <0>        -0.3684
     19 C12        -0.3302   -2.3879   -1.0256 C.3       1 <0>        -0.0169
     20 C13         0.3853   -3.6632   -0.6565 C.3       1 <0>        -0.1500
     21 C14        -0.3598   -4.9016   -1.1886 C.3       1 <0>        -0.1335
     22 C15        -1.8870   -4.7648   -1.0247 C.3       1 <0>        -0.1361
     23 C16        -2.2703   -4.1593    0.3015 C.3       1 <0>        -0.1355
     24 C17        -2.4172   -2.6324    0.1343 C.3       1 <0>        -0.0594
     25 H3          0.6331    2.2242    0.3563 H         1 <0>         0.0901
     26 H4         -0.8126    2.0276   -0.6633 H         1 <0>         0.0666
     27 H5         -0.9534    1.9315    1.1084 H         1 <0>         0.0742
     28 H6          0.5652   -0.0340   -0.6657 H         1 <0>         0.1053
     29 H7          0.0240    0.0344    2.3366 H         1 <0>         0.0808
     30 H8          0.7334   -1.3457    1.4645 H         1 <0>         0.0522
     31 H9          1.6078    0.2028    1.5419 H         1 <0>         0.0983
     32 H10        -2.0288    0.8997   -1.4346 H         1 <0>         0.1382
     33 H11        -1.4666   -0.6499   -2.1059 H         1 <0>         0.1140
     34 H12        -3.8191   -1.0489   -0.5412 H         1 <0>         0.4354
     35 H13        -6.2328    0.1147   -4.0764 H         1 <0>         0.1109
     36 H14        -5.6530   -1.4987   -4.5551 H         1 <0>         0.1157
     37 H15        -7.9280   -0.7985   -5.5720 H         1 <0>         0.0870
     38 H16        -8.3423   -2.5242   -5.2988 H         1 <0>         0.0982
     39 H17       -10.3029   -0.6112   -5.2214 H         1 <0>         0.0979
     40 H18       -10.3227   -1.9674   -4.0429 H         1 <0>         0.0886
     41 H19        -9.2105    0.8682   -3.6759 H         1 <0>         0.0699
     42 H20       -10.2649   -0.0609   -2.5679 H         1 <0>         0.0998
     43 H21        -2.6643    0.2761   -3.6079 H         1 <0>         0.4361
     44 H22        -4.0932    0.0130   -4.4517 H         1 <0>         0.4432
     45 H23        -0.9508   -2.5563   -1.9057 H         1 <0>         0.1298
     46 H24         0.3988   -1.6047   -1.2338 H         1 <0>         0.1420
     47 H25         1.3900   -3.6432   -1.0788 H         1 <0>         0.1149
     48 H26         0.4576   -3.7300    0.4290 H         1 <0>         0.0852
     49 H27        -0.1261   -5.0299   -2.2455 H         1 <0>         0.0828
     50 H28        -0.0214   -5.7819   -0.6421 H         1 <0>         0.0884
     51 H29        -2.2729   -4.1340   -1.8255 H         1 <0>         0.0602
     52 H30        -2.3407   -5.7525   -1.1061 H         1 <0>         0.0918
     53 H31        -3.2178   -4.5824    0.6352 H         1 <0>         0.1145
     54 H32        -1.4950   -4.3726    1.0373 H         1 <0>         0.0949
     55 H33        -3.0071   -2.2403    0.9628 H         1 <0>         0.1331
     56 H34        -2.9404   -2.4269   -0.7996 H         1 <0>         0.1262
     57 H35        -5.7769   -1.3980   -1.7353 H         1 <0>         0.4429
     58 H36        -0.6900   -2.1976    0.9696 H         1 <0>         0.4293
@<TRIPOS>BOND
     1    1    2 1
     2    1   25 1
     3    1   26 1
     4    1   27 1
     5    2    3 1
     6    2    4 1
     7    2   28 1
     8    3   29 1
     9    3   30 1
    10    3   31 1
    11    4    5 1
    12    4    6 1
    13    4   18 1
    14    6    7 1
    15    6   32 1
    16    6   33 1
    17    7    8 1
    18    7   34 1
    19    8    9 2
    20    8   17 1
    21    9   10 1
    22    9   57 1
    23   10   11 1
    24   10   35 1
    25   10   36 1
    26   11   12 1
    27   11   16 1
    28   11   13 1
    29   13   14 1
    30   13   37 1
    31   13   38 1
    32   14   15 1
    33   14   39 1
    34   14   40 1
    35   15   16 1
    36   15   41 1
    37   15   42 1
    38   17   43 1
    39   17   44 1
    40   18   24 1
    41   18   19 1
    42   18   58 1
    43   19   20 1
    44   19   45 1
    45   19   46 1
    46   20   21 1
    47   20   47 1
    48   20   48 1
    49   21   22 1
    50   21   49 1
    51   21   50 1
    52   22   23 1
    53   22   51 1
    54   22   52 1
    55   23   24 1
    56   23   53 1
    57   23   54 1
    58   24   55 1
    59   24   56 1
@<TRIPOS>MOLECULE
ZINC12593566
   63    65     0     0     0
SMALL
USER_CHARGES
N-[(3R)-1-(cyclohexylmethyl)-3-piperidyl]-2-(1-methyl-4-piperidyl)acetamide
@<TRIPOS>ATOM
      1 C1        -11.3284    3.7178   -1.4680 C.3       1 <0>        -0.0436
      2 C2        -10.1387    1.6140   -1.6076 C.3       1 <0>        -0.0014
      3 C3         -9.0967    0.7366   -0.9102 C.3       1 <0>        -0.1457
      4 C4         -7.7433    1.4526   -0.9221 C.3       1 <0>        -0.0857
      5 C5         -7.8881    2.8125   -0.2335 C.3       1 <0>        -0.1496
      6 C6         -8.9651    3.6298   -0.9505 C.3       1 <0>        -0.0003
      7 C7         -6.7112    0.6074   -0.1728 C.3       1 <0>        -0.1400
      8 C8         -5.3539    1.2518   -0.2898 C.2       1 <0>         0.5223
      9 O1         -5.2249    2.2853   -0.9113 O.2       1 <0>        -0.5255
     10 N1         -4.2835    0.6797    0.2961 N.am      1 <0>        -0.7266
     11 C9         -2.9641    1.3061    0.1823 C.3       1 <0>         0.1293
     12 H1         -3.0745    2.3905    0.1865 H         1 <0>         0.1087
     13 C10        -2.2997    0.8649   -1.1248 C.3       1 <0>        -0.1495
     14 C11        -0.8981    1.4758   -1.2072 C.3       1 <0>        -0.1446
     15 C12        -0.0847    1.0409    0.0139 C.3       1 <0>        -0.0067
     16 C13        -2.0908    0.8761    1.3632 C.3       1 <0>        -0.0161
     17 C14         0.0589    1.2086    2.4247 C.3       1 <0>        -0.0039
     18 C15        -0.4675    2.0195    3.6106 C.3       1 <0>        -0.1137
     19 C16        -0.3031    3.5127    3.3205 C.3       1 <0>        -0.1288
     20 C17        -0.8296    4.3235    4.5064 C.3       1 <0>        -0.1187
     21 C18        -0.0395    3.9584    5.7648 C.3       1 <0>        -0.1280
     22 C19        -0.2039    2.4652    6.0548 C.3       1 <0>        -0.1220
     23 C20         0.3225    1.6543    4.8689 C.3       1 <0>        -0.1124
     24 H2        -12.2734    3.1858   -1.3585 H         1 <0>         0.1236
     25 H3        -11.3815    4.6666   -0.9341 H         1 <0>         0.1229
     26 H4        -11.1374    3.9056   -2.5246 H         1 <0>         0.1237
     27 H5         -9.8379    1.7828   -2.6416 H         1 <0>         0.1311
     28 H6        -11.1067    1.1134   -1.5882 H         1 <0>         0.1323
     29 H7         -9.0103   -0.2139   -1.4367 H         1 <0>         0.1144
     30 H8         -9.4039    0.5560    0.1200 H         1 <0>         0.0907
     31 H9         -7.4170    1.5976   -1.9519 H         1 <0>         0.0990
     32 H10        -8.1762    2.6646    0.8073 H         1 <0>         0.0835
     33 H11        -6.9381    3.3452   -0.2765 H         1 <0>         0.1241
     34 H12        -8.6698    3.7891   -1.9876 H         1 <0>         0.1308
     35 H13        -9.0807    4.5932   -0.4539 H         1 <0>         0.1291
     36 H14        -6.6772   -0.3924   -0.6055 H         1 <0>         0.1107
     37 H15        -6.9915    0.5391    0.8783 H         1 <0>         0.1055
     38 H16        -4.3868   -0.1469    0.7932 H         1 <0>         0.4107
     39 H17        -2.8965    1.2070   -1.9703 H         1 <0>         0.0982
     40 H18        -2.2251   -0.2223   -1.1466 H         1 <0>         0.0862
     41 H19        -0.9754    2.5629   -1.2246 H         1 <0>         0.0905
     42 H20        -0.4037    1.1309   -2.1154 H         1 <0>         0.1203
     43 H21         0.0039   -0.0455    0.0232 H         1 <0>         0.1342
     44 H22         0.9091    1.4859   -0.0344 H         1 <0>         0.1354
     45 H23        -2.5540    1.2013    2.2948 H         1 <0>         0.1339
     46 H24        -1.9929   -0.2095    1.3661 H         1 <0>         0.1375
     47 H25         0.0082    0.1456    2.6602 H         1 <0>         0.1350
     48 H26         1.0935    1.4874    2.2245 H         1 <0>         0.1357
     49 H27        -1.5225    1.7934    3.7656 H         1 <0>         0.0905
     50 H28         0.7518    3.7387    3.1655 H         1 <0>         0.0825
     51 H29        -0.8660    3.7728    2.4241 H         1 <0>         0.0518
     52 H30        -1.8845    4.0975    4.6614 H         1 <0>         0.0646
     53 H31        -0.7125    5.3873    4.2998 H         1 <0>         0.0740
     54 H32        -0.4146    4.5361    6.6096 H         1 <0>         0.0728
     55 H33         1.0155    4.1844    5.6098 H         1 <0>         0.0687
     56 H34        -1.2589    2.2391    6.2098 H         1 <0>         0.0650
     57 H35         0.3589    2.2050    6.9513 H         1 <0>         0.0765
     58 H36         0.2054    0.5905    5.0755 H         1 <0>         0.0747
     59 H37         1.3775    1.8804    4.7139 H         1 <0>         0.0767
     60 N2        -10.2477    2.8979   -0.8824 N.4       1 <0>        -0.3966
     61 H38       -10.4701    2.7067    0.1016 H         1 <0>         0.4279
     62 N3         -0.7645    1.5168    1.2374 N.4       1 <0>        -0.3914
     63 H39        -0.8906    2.5338    1.1741 H         1 <0>         0.4256
@<TRIPOS>BOND
     1    1   24 1
     2    1   25 1
     3    1   26 1
     4    1   60 1
     5    2    3 1
     6    2   27 1
     7    2   28 1
     8    2   60 1
     9    3    4 1
    10    3   29 1
    11    3   30 1
    12    4    5 1
    13    4    7 1
    14    4   31 1
    15    5    6 1
    16    5   32 1
    17    5   33 1
    18    6   34 1
    19    6   35 1
    20    6   60 1
    21    7    8 1
    22    7   36 1
    23    7   37 1
    24    8    9 2
    25    8   10 am
    26   10   11 1
    27   10   38 1
    28   11   12 1
    29   11   16 1
    30   11   13 1
    31   13   14 1
    32   13   39 1
    33   13   40 1
    34   14   15 1
    35   14   41 1
    36   14   42 1
    37   15   43 1
    38   15   44 1
    39   15   62 1
    40   16   45 1
    41   16   46 1
    42   16   62 1
    43   17   18 1
    44   17   47 1
    45   17   48 1
    46   17   62 1
    47   18   23 1
    48   18   19 1
    49   18   49 1
    50   19   20 1
    51   19   50 1
    52   19   51 1
    53   20   21 1
    54   20   52 1
    55   20   53 1
    56   21   22 1
    57   21   54 1
    58   21   55 1
    59   22   23 1
    60   22   56 1
    61   22   57 1
    62   23   58 1
    63   23   59 1
    64   60   61 1
    65   62   63 1
@<TRIPOS>MOLECULE
ZINC37649395
   44    46     0     0     0
SMALL
USER_CHARGES

@<TRIPOS>ATOM
      1 C1         -0.0187    1.5258    0.0104 C.3       1 <0>        -0.1841
      2 C2          0.0021   -0.0041    0.0020 C.3       1 <0>         0.0800
      3 H1          0.5293   -0.3651    0.8851 H         1 <0>         0.1593
      4 C3          0.7074   -0.4901   -1.2379 C.ar      1 <0>        -0.1090
      5 C4         -0.0231   -0.8170   -2.3649 C.ar      1 <0>        -0.1477
      6 C5          0.6243   -1.2634   -3.5038 C.ar      1 <0>         0.1406
      7 C6          2.0051   -1.3819   -3.5136 C.ar      1 <0>        -0.0462
      8 C7          2.7344   -1.0540   -2.3856 C.ar      1 <0>        -0.0537
      9 C8          2.0860   -0.6033   -1.2494 C.ar      1 <0>        -0.0152
     10 Cl1         3.0026   -0.1860    0.1646 Cl        1 <0>        -0.0157
     11 Cl2         2.8185   -1.9422   -4.9412 Cl        1 <0>         0.0086
     12 F1         -0.0894   -1.5839   -4.6052 F         1 <0>        -0.1030
     13 N1         -1.3761   -0.5125    0.0124 N.4       1 <0>        -0.5105
     14 C9         -2.0260   -0.1396    1.2760 C.3       1 <0>        -0.0045
     15 C10        -3.4614   -0.6692    1.2868 C.3       1 <0>        -0.1445
     16 H2         -4.0032   -0.3292    0.4042 H         1 <0>         0.1318
     17 C11        -3.4745   -2.2126    1.3758 C.3       1 <0>        -0.1628
     18 C12        -4.6347   -2.5506    2.3303 C.3       1 <0>        -0.0006
     19 N2         -5.2564   -1.2690    2.7284 N.4       1 <0>        -0.3655
     20 C13        -4.1955   -0.2371    2.5810 C.3       1 <0>         0.0088
     21 C14        -5.7078   -1.3372    4.1247 C.3       1 <0>        -0.0873
     22 C15        -7.2154   -1.2978    4.3825 C.3       1 <0>        -0.1488
     23 C16        -6.3493   -0.0831    4.7218 C.3       1 <0>        -0.1522
     24 H3          1.0039    1.9031    0.0027 H         1 <0>         0.1172
     25 H4         -0.5459    1.8868   -0.8726 H         1 <0>         0.0916
     26 H5         -0.5289    1.8773    0.9072 H         1 <0>         0.0921
     27 H6         -1.0991   -0.7245   -2.3566 H         1 <0>         0.1462
     28 H7          3.8105   -1.1461   -2.3926 H         1 <0>         0.1730
     29 H8         -1.8879   -0.1129   -0.7598 H         1 <0>         0.4306
     30 H9         -1.4732   -0.5714    2.1102 H         1 <0>         0.1488
     31 H10        -2.0386    0.9461    1.3715 H         1 <0>         0.1539
     32 H11        -3.6548   -2.6467    0.3924 H         1 <0>         0.1180
     33 H12        -2.5311   -2.5760    1.7834 H         1 <0>         0.1135
     34 H13        -5.3667   -3.1752    1.8183 H         1 <0>         0.1422
     35 H14        -4.2527   -3.0674    3.2107 H         1 <0>         0.1405
     36 H15        -3.5172   -0.2602    3.4340 H         1 <0>         0.1464
     37 H16        -4.6327    0.7543    2.4626 H         1 <0>         0.1485
     38 H17        -5.0998   -1.9549    4.7857 H         1 <0>         0.1792
     39 H18        -7.8723   -1.2214    3.5160 H         1 <0>         0.1226
     40 H19        -7.5996   -1.8899    5.2131 H         1 <0>         0.1386
     41 H20        -6.1637    0.1241    5.7757 H         1 <0>         0.1376
     42 H21        -6.4364    0.7926    4.0786 H         1 <0>         0.1197
     43 H22        -6.0327   -1.0552    2.1205 H         1 <0>         0.4293
     44 H23        -1.3644   -1.5176   -0.0760 H         1 <0>         0.4326
@<TRIPOS>BOND
     1    1    2 1
     2    1   24 1
     3    1   25 1
     4    1   26 1
     5    2    3 1
     6    2    4 1
     7    2   13 1
     8    4    9 ar
     9    4    5 ar
    10    5    6 ar
    11    5   27 1
    12    6    7 ar
    13    6   12 1
    14    7    8 ar
    15    7   11 1
    16    8    9 ar
    17    8   28 1
    18    9   10 1
    19   13   14 1
    20   13   29 1
    21   13   44 1
    22   14   15 1
    23   14   30 1
    24   14   31 1
    25   15   16 1
    26   15   20 1
    27   15   17 1
    28   17   18 1
    29   17   32 1
    30   17   33 1
    31   18   19 1
    32   18   34 1
    33   18   35 1
    34   19   20 1
    35   19   21 1
    36   19   43 1
    37   20   36 1
    38   20   37 1
    39   21   23 1
    40   21   22 1
    41   21   38 1
    42   22   23 1
    43   22   39 1
    44   22   40 1
    45   23   41 1
    46   23   42 1
@<TRIPOS>MOLECULE
ZINC52516867
   43    44     0     0     0
SMALL
USER_CHARGES

@<TRIPOS>ATOM
      1 C1          1.0618    1.3593    0.0313 C.3       1 <0>        -0.1816
      2 C2          0.7567   -0.1345   -0.0974 C.3       1 <0>        -0.1312
      3 C3         -0.7126   -0.3864    0.2468 C.3       1 <0>        -0.1840
      4 C4          1.0294   -0.5888   -1.5327 C.3       1 <0>         0.0034
      5 H1          2.0703   -0.3876   -1.7860 H         1 <0>         0.1608
      6 C5          0.1143    0.1749   -2.4920 C.3       1 <0>        -0.0364
      7 N1          0.6145    1.5459   -2.6587 N.4       1 <0>        -0.4820
      8 C6         -0.1817    2.2367   -3.6819 C.3       1 <0>        -0.0993
      9 C7          0.5383    2.6804   -4.9569 C.3       1 <0>        -0.1497
     10 C8          0.1080    3.7200   -3.9201 C.3       1 <0>        -0.1465
     11 N2          0.7671   -2.0296   -1.6485 N.4       1 <0>        -0.3829
     12 C9          1.0577   -2.4717   -3.0189 C.3       1 <0>        -0.0696
     13 C10         1.6244   -2.7607   -0.7059 C.3       1 <0>         0.0946
     14 C11         1.2696   -4.2250   -0.7361 C.2       1 <0>        -0.2821
     15 C12         1.7800   -5.2111   -1.5136 C.2       1 <0>        -0.0572
     16 C13         1.2969   -6.4983   -1.3672 C.2       1 <0>        -0.1604
     17 C14         0.3269   -6.7357   -0.4500 C.2       1 <0>        -0.0772
     18 S1          0.0736   -5.1124    0.2484 S.3       1 <0>         0.1463
     19 Br1         1.9782   -7.9060   -2.4302 Br        1 <0>         0.0071
     20 H2          1.9189    1.6102   -0.5936 H         1 <0>         0.0703
     21 H3          0.1953    1.9362   -0.2918 H         1 <0>         0.0731
     22 H4          1.2885    1.5955    1.0710 H         1 <0>         0.1159
     23 H5          1.3919   -0.6954    0.5881 H         1 <0>         0.1256
     24 H6         -1.3478    0.1745   -0.4387 H         1 <0>         0.0737
     25 H7         -0.9299   -1.4506    0.1551 H         1 <0>         0.0656
     26 H8         -0.9069   -0.0627    1.2694 H         1 <0>         0.1051
     27 H9          0.1016   -0.3274   -3.4593 H         1 <0>         0.1559
     28 H10        -0.8962    0.2038   -2.0844 H         1 <0>         0.1615
     29 H11         0.5384    2.0406   -1.7826 H         1 <0>         0.4321
     30 H12        -1.2153    1.9042   -3.7769 H         1 <0>         0.1836
     31 H13         1.6028    2.4597   -5.0365 H         1 <0>         0.1244
     32 H14        -0.0217    2.6396   -5.8912 H         1 <0>         0.1401
     33 H15        -0.7351    4.3633   -4.1724 H         1 <0>         0.1419
     34 H16         0.8893    4.1833   -3.3177 H         1 <0>         0.1256
     35 H17         2.0810   -2.2008   -3.2787 H         1 <0>         0.1343
     36 H18         0.9404   -3.5534   -3.0842 H         1 <0>         0.1403
     37 H19         0.3673   -1.9889   -3.7105 H         1 <0>         0.1275
     38 H20         2.6687   -2.6339   -0.9912 H         1 <0>         0.1556
     39 H21         1.4728   -2.3708    0.3006 H         1 <0>         0.1507
     40 H22         2.5522   -4.9944   -2.2370 H         1 <0>         0.1531
     41 H23        -0.1622   -7.6663   -0.2028 H         1 <0>         0.2135
     42 H24         1.5812    1.5186   -2.9466 H         1 <0>         0.4282
     43 H25        -0.2016   -2.2133   -1.4341 H         1 <0>         0.4302
@<TRIPOS>BOND
     1    1    2 1
     2    1   20 1
     3    1   21 1
     4    1   22 1
     5    2    3 1
     6    2    4 1
     7    2   23 1
     8    3   24 1
     9    3   25 1
    10    3   26 1
    11    4    5 1
    12    4    6 1
    13    4   11 1
    14    6    7 1
    15    6   27 1
    16    6   28 1
    17    7    8 1
    18    7   29 1
    19    7   42 1
    20    8   10 1
    21    8    9 1
    22    8   30 1
    23    9   10 1
    24    9   31 1
    25    9   32 1
    26   10   33 1
    27   10   34 1
    28   11   12 1
    29   11   13 1
    30   11   43 1
    31   12   35 1
    32   12   36 1
    33   12   37 1
    34   13   14 1
    35   13   38 1
    36   13   39 1
    37   14   18 1
    38   14   15 2
    39   15   16 1
    40   15   40 1
    41   16   17 2
    42   16   19 1
    43   17   18 1
    44   17   41 1
@<TRIPOS>MOLECULE
ZINC63530681
   66    69     0     0     0
SMALL
USER_CHARGES

@<TRIPOS>ATOM
      1 C1          1.9004    0.2725    0.8570 C.3       1 <0>        -0.1593
      2 C2          0.9993    0.4228   -0.3704 C.3       1 <0>        -0.1468
      3 C3         -0.3557   -0.2306   -0.0913 C.3       1 <0>         0.0267
      4 H1         -0.8008    0.2214    0.7951 H         1 <0>         0.1376
      5 C4         -0.1595   -1.7296    0.1451 C.3       1 <0>        -0.1428
      6 C5         -1.5181   -2.3789    0.4242 C.3       1 <0>        -0.1401
      7 C6         -2.4594   -2.0948   -0.7498 C.3       1 <0>        -0.1457
      8 C7         -2.5704   -0.5823   -0.9530 C.3       1 <0>        -0.0113
      9 N1         -1.2433   -0.0257   -1.2422 N.4       1 <0>        -0.3793
     10 C8         -1.3664    1.4127   -1.5139 C.3       1 <0>        -0.0143
     11 C9         -2.1745    1.6222   -2.7961 C.3       1 <0>        -0.1652
     12 C10        -2.3027    3.1204   -3.0790 C.3       1 <0>         0.1215
     13 N2         -3.0765    3.3210   -4.3067 N.am      1 <0>        -0.7112
     14 C11        -3.3182    4.5690   -4.7546 C.2       1 <0>         0.5315
     15 O1         -2.8951    5.5259   -4.1412 O.2       1 <0>        -0.4826
     16 C12        -4.1141    4.7754   -6.0175 C.3       1 <0>         0.0885
     17 H2         -4.9511    4.0779   -6.0514 H         1 <0>         0.1816
     18 C13        -3.2281    4.5852   -7.2286 C.2       1 <0>        -0.1005
     19 C14        -3.2468    5.8018   -7.9032 C.ar      1 <0>        -0.0642
     20 C15        -2.6208    6.2428   -9.0897 C.ar      1 <0>        -0.0379
     21 C16        -2.8208    7.5139   -9.5242 C.ar      1 <0>        -0.1139
     22 C17        -3.6350    8.4055   -8.8244 C.ar      1 <0>         0.1016
     23 C18        -4.2666    8.0488   -7.6781 C.ar      1 <0>        -0.2146
     24 C19        -4.1060    6.7381   -7.1629 C.ar      1 <0>         0.3369
     25 N3         -4.6041    6.1556   -6.0857 N.pl3     1 <0>        -0.5663
     26 C20        -3.8171    9.8035   -9.3566 C.3       1 <0>        -0.1526
     27 S1         -2.4040    3.2110   -7.6621 S.3       1 <0>         0.2019
     28 C21        -3.6762    2.0587   -8.0601 C.ar      1 <0>        -0.1554
     29 C22        -5.0039    2.4679   -8.0827 C.ar      1 <0>        -0.1154
     30 C23        -5.9987    1.5627   -8.3949 C.ar      1 <0>        -0.0870
     31 C24        -5.6745    0.2487   -8.6847 C.ar      1 <0>        -0.0165
     32 C25        -4.3529   -0.1618   -8.6629 C.ar      1 <0>        -0.0851
     33 C26        -3.3532    0.7404   -8.3575 C.ar      1 <0>        -0.0620
     34 Cl1        -6.9281   -0.8868   -9.0756 Cl        1 <0>        -0.0321
     35 H3          2.8888    0.6742    0.6335 H         1 <0>         0.0788
     36 H4          1.4672    0.8188    1.6948 H         1 <0>         0.0678
     37 H5          1.9872   -0.7824    1.1170 H         1 <0>         0.0711
     38 H6          0.8546    1.4811   -0.5875 H         1 <0>         0.0861
     39 H7          1.4675   -0.0631   -1.2265 H         1 <0>         0.0872
     40 H8          0.2853   -2.1826   -0.7409 H         1 <0>         0.0889
     41 H9          0.4985   -1.8800    1.0009 H         1 <0>         0.1168
     42 H10        -1.3911   -3.4556    0.5374 H         1 <0>         0.0976
     43 H11        -1.9401   -1.9624    1.3388 H         1 <0>         0.0829
     44 H12        -2.0624   -2.5555   -1.6544 H         1 <0>         0.0879
     45 H13        -3.4453   -2.5064   -0.5336 H         1 <0>         0.1136
     46 H14        -3.2401   -0.3765   -1.7881 H         1 <0>         0.1282
     47 H15        -2.9678   -0.1227   -0.0480 H         1 <0>         0.1300
     48 H16        -1.8749    1.8976   -0.6806 H         1 <0>         0.1359
     49 H17        -0.3735    1.8458   -1.6353 H         1 <0>         0.1412
     50 H18        -1.6660    1.1373   -3.6294 H         1 <0>         0.1000
     51 H19        -3.1674    1.1891   -2.6747 H         1 <0>         0.0983
     52 H20        -2.8112    3.6053   -2.2457 H         1 <0>         0.0910
     53 H21        -1.3099    3.5535   -3.2004 H         1 <0>         0.0918
     54 H22        -3.4148    2.5556   -4.7973 H         1 <0>         0.4102
     55 H23        -1.9854    5.5722   -9.6491 H         1 <0>         0.1712
     56 H24        -2.3381    7.8426  -10.4326 H         1 <0>         0.1684
     57 H25        -4.8899    8.7619   -7.1591 H         1 <0>         0.1691
     58 H26        -4.6735    9.8270  -10.0306 H         1 <0>         0.1125
     59 H27        -3.9891   10.4888   -8.5266 H         1 <0>         0.0955
     60 H28        -2.9206   10.1060   -9.8977 H         1 <0>         0.0992
     61 H29        -5.2575    3.4930   -7.8560 H         1 <0>         0.1219
     62 H30        -7.0308    1.8803   -8.4126 H         1 <0>         0.1482
     63 H31        -4.1029   -1.1879   -8.8892 H         1 <0>         0.1539
     64 H32        -2.3217    0.4206   -8.3451 H         1 <0>         0.1491
     65 H33        -5.1981    6.5738   -5.4429 H         1 <0>         0.4593
     66 H34        -0.8550   -0.4867   -2.0514 H         1 <0>         0.4207
@<TRIPOS>BOND
     1    1    2 1
     2    1   35 1
     3    1   36 1
     4    1   37 1
     5    2    3 1
     6    2   38 1
     7    2   39 1
     8    3    4 1
     9    3    9 1
    10    3    5 1
    11    5    6 1
    12    5   40 1
    13    5   41 1
    14    6    7 1
    15    6   42 1
    16    6   43 1
    17    7    8 1
    18    7   44 1
    19    7   45 1
    20    8    9 1
    21    8   46 1
    22    8   47 1
    23    9   10 1
    24    9   66 1
    25   10   11 1
    26   10   48 1
    27   10   49 1
    28   11   12 1
    29   11   50 1
    30   11   51 1
    31   12   13 1
    32   12   52 1
    33   12   53 1
    34   13   14 am
    35   13   54 1
    36   14   15 2
    37   14   16 1
    38   16   17 1
    39   16   25 1
    40   16   18 1
    41   18   19 2
    42   18   27 1
    43   19   24 ar
    44   19   20 ar
    45   20   21 ar
    46   20   55 1
    47   21   22 ar
    48   21   56 1
    49   22   23 ar
    50   22   26 1
    51   23   24 ar
    52   23   57 1
    53   24   25 2
    54   25   65 1
    55   26   58 1
    56   26   59 1
    57   26   60 1
    58   27   28 1
    59   28   33 ar
    60   28   29 ar
    61   29   30 ar
    62   29   61 1
    63   30   31 ar
    64   30   62 1
    65   31   32 ar
    66   31   34 1
    67   32   33 ar
    68   32   63 1
    69   33   64 1
@<TRIPOS>MOLECULE
ZINC64083905
   49    51     0     0     0
SMALL
USER_CHARGES

@<TRIPOS>ATOM
      1 C1         -0.0187    1.5258    0.0104 C.3       1 <0>        -0.1691
      2 C2          0.0021   -0.0041    0.0020 C.3       1 <0>        -0.1185
      3 C3          0.7182   -0.4975   -1.2568 C.3       1 <0>         0.0825
      4 H1          1.7077   -0.0457   -1.3271 H         1 <0>         0.1847
      5 C4          0.8341   -2.0052   -1.2335 C.2       1 <0>         0.1199
      6 C5          0.1621   -2.4496   -2.3200 C.ar      1 <0>        -0.2084
      7 C6         -0.0907   -3.7942   -2.8515 C.ar      1 <0>         0.0468
      8 C7         -0.8144   -3.9256   -3.9864 C.ar      1 <0>        -0.1925
      9 C8         -1.3277   -2.8124   -4.6662 C.ar      1 <0>         0.0302
     10 C9         -1.1374   -1.5460   -4.2397 C.ar      1 <0>        -0.1763
     11 C10        -0.3909   -1.2906   -3.0564 C.ar      1 <0>         0.3344
     12 N1         -0.0724   -0.1716   -2.4490 N.pl3     1 <0>        -0.5677
     13 C11        -1.0752   -5.3048   -4.5349 C.3       1 <0>         0.0397
     14 N2         -2.3217   -5.8314   -3.9632 N.4       1 <0>        -0.5118
     15 C12        -2.5760   -7.1758   -4.4978 C.3       1 <0>         0.0481
     16 C13        -3.8548   -7.7161   -3.9114 C.ar      1 <0>        -0.1469
     17 C14        -3.8229   -8.4366   -2.7318 C.ar      1 <0>        -0.0986
     18 C15        -4.9939   -8.9339   -2.1906 C.ar      1 <0>        -0.1132
     19 C16        -6.2008   -8.7113   -2.8289 C.ar      1 <0>         0.1148
     20 C17        -6.2343   -7.9871   -4.0138 C.ar      1 <0>         0.1054
     21 C18        -5.0581   -7.4857   -4.5503 C.ar      1 <0>        -0.1627
     22 O1         -7.4187   -7.7664   -4.6438 O.3       1 <0>        -0.2972
     23 C19        -7.3774   -7.0138   -5.8578 C.3       1 <0>         0.0223
     24 F1         -7.3452   -9.1978   -2.3008 F         1 <0>        -0.1108
     25 C20         1.5527   -2.8430   -0.2074 C.3       1 <0>        -0.1440
     26 H2          1.0039    1.9031    0.0027 H         1 <0>         0.0758
     27 H3         -0.5459    1.8868   -0.8726 H         1 <0>         0.0567
     28 H4         -0.5289    1.8773    0.9072 H         1 <0>         0.0891
     29 H5          0.5293   -0.3651    0.8851 H         1 <0>         0.1166
     30 H6         -1.0205   -0.3814    0.0098 H         1 <0>         0.0893
     31 H7          0.2957   -4.6657   -2.3439 H         1 <0>         0.1690
     32 H8         -1.8987   -2.9747   -5.5684 H         1 <0>         0.1641
     33 H9         -1.5543   -0.7222   -4.8000 H         1 <0>         0.1692
     34 H10        -1.1664   -5.2531   -5.6198 H         1 <0>         0.1525
     35 H11        -0.2477   -5.9633   -4.2708 H         1 <0>         0.1513
     36 H12        -2.2373   -5.8792   -2.9589 H         1 <0>         0.4279
     37 H13        -2.6672   -7.1242   -5.5828 H         1 <0>         0.1443
     38 H14        -1.7485   -7.8343   -4.2337 H         1 <0>         0.1472
     39 H15        -2.8814   -8.6117   -2.2324 H         1 <0>         0.1446
     40 H16        -4.9663   -9.4968   -1.2693 H         1 <0>         0.1589
     41 H17        -5.0820   -6.9189   -5.4693 H         1 <0>         0.1469
     42 H18        -6.7509   -7.5308   -6.5847 H         1 <0>         0.0637
     43 H19        -8.3868   -6.9109   -6.2561 H         1 <0>         0.1162
     44 H20        -6.9629   -6.0255   -5.6587 H         1 <0>         0.0580
     45 H21         0.8640   -3.1026    0.5966 H         1 <0>         0.1322
     46 H22         1.9229   -3.7543   -0.6771 H         1 <0>         0.1114
     47 H23         2.3909   -2.2780    0.2004 H         1 <0>         0.1163
     48 H24        -0.3182    0.7209   -2.7386 H         1 <0>         0.4591
     49 H25        -3.0877   -5.2218   -4.2077 H         1 <0>         0.4285
@<TRIPOS>BOND
     1    1    2 1
     2    1   26 1
     3    1   27 1
     4    1   28 1
     5    2    3 1
     6    2   29 1
     7    2   30 1
     8    3    4 1
     9    3   12 1
    10    3    5 1
    11    5    6 2
    12    5   25 1
    13    6   11 ar
    14    6    7 ar
    15    7    8 ar
    16    7   31 1
    17    8    9 ar
    18    8   13 1
    19    9   10 ar
    20    9   32 1
    21   10   11 ar
    22   10   33 1
    23   11   12 2
    24   12   48 1
    25   13   14 1
    26   13   34 1
    27   13   35 1
    28   14   15 1
    29   14   36 1
    30   14   49 1
    31   15   16 1
    32   15   37 1
    33   15   38 1
    34   16   21 ar
    35   16   17 ar
    36   17   18 ar
    37   17   39 1
    38   18   19 ar
    39   18   40 1
    40   19   20 ar
    41   19   24 1
    42   20   21 ar
    43   20   22 1
    44   21   41 1
    45   22   23 1
    46   23   42 1
    47   23   43 1
    48   23   44 1
    49   25   45 1
    50   25   46 1
    51   25   47 1
@<TRIPOS>MOLECULE
ZINC04357167
   39    40     0     0     0
SMALL
USER_CHARGES
N-(2,4-dimethylphenyl)-2-(3-oxopiperazin-2-yl)-acetamide
@<TRIPOS>ATOM
      1 C1         -0.0035    1.1265   -0.0025 C.3       1 <0>        -0.1220
      2 C2         -0.7112    1.6018    1.2402 C.ar      1 <0>        -0.0754
      3 C3         -0.0430    2.3970    2.1534 C.ar      1 <0>        -0.1112
      4 C4         -0.6887    2.8341    3.2931 C.ar      1 <0>        -0.1053
      5 C5         -2.0107    2.4746    3.5216 C.ar      1 <0>         0.1065
      6 C6         -2.6789    1.6765    2.6027 C.ar      1 <0>        -0.0927
      7 C7         -2.0288    1.2465    1.4622 C.ar      1 <0>        -0.1050
      8 C8         -4.1133    1.2841    2.8467 C.3       1 <0>        -0.1200
      9 N1         -2.6679    2.9163    4.6753 N.am      1 <0>        -0.6441
     10 C9         -1.9864    3.0479    5.8305 C.2       1 <0>         0.5112
     11 O1         -0.7880    2.8625    5.8521 O.2       1 <0>        -0.5410
     12 C10        -2.7133    3.4255    7.0955 C.3       1 <0>        -0.1619
     13 C11        -1.7153    3.5073    8.2522 C.3       1 <0>         0.0430
     14 H1         -0.9124    4.1960    7.9893 H         1 <0>         0.1782
     15 C12        -2.4179    4.0068    9.4828 C.2       1 <0>         0.5086
     16 O2         -3.2013    4.9260    9.3718 O.2       1 <0>        -0.4851
     17 N2         -2.2160    3.4839   10.6953 N.am      1 <0>        -0.7179
     18 C13        -1.3239    2.3526   10.9321 C.3       1 <0>         0.0793
     19 C14        -0.3672    2.1829    9.7505 C.3       1 <0>        -0.0171
     20 H2          0.4825    0.1719    0.1987 H         1 <0>         0.0755
     21 H3          0.7462    1.8609   -0.2970 H         1 <0>         0.0711
     22 H4         -0.7273    1.0031   -0.8081 H         1 <0>         0.0712
     23 H5          0.9849    2.6762    1.9751 H         1 <0>         0.1296
     24 H6         -0.1662    3.4545    4.0062 H         1 <0>         0.1390
     25 H7         -2.5491    0.6288    0.7452 H         1 <0>         0.1317
     26 H8         -4.7742    2.0297    2.4048 H         1 <0>         0.0773
     27 H9         -4.3065    0.3124    2.3922 H         1 <0>         0.0775
     28 H10        -4.2966    1.2263    3.9196 H         1 <0>         0.0603
     29 H11        -3.6141    3.1277    4.6436 H         1 <0>         0.4192
     30 H12        -3.1953    4.3940    6.9623 H         1 <0>         0.1594
     31 H13        -3.4682    2.6717    7.3195 H         1 <0>         0.1284
     32 H14        -2.6833    3.8718   11.4516 H         1 <0>         0.4287
     33 H15        -1.9152    1.4448   11.0519 H         1 <0>         0.1020
     34 H16        -0.7485    2.5298   11.8407 H         1 <0>         0.1302
     35 H17         0.1722    1.2409    9.8492 H         1 <0>         0.1590
     36 H18         0.3424    3.0100    9.7301 H         1 <0>         0.1433
     37 N3         -1.1519    2.1706    8.5020 N.4       1 <0>        -0.5150
     38 H19        -0.5424    1.9061    7.7192 H         1 <0>         0.4511
     39 H20        -1.9156    1.4894    8.5864 H         1 <0>         0.4319
@<TRIPOS>BOND
     1    1    2 1
     2    1   20 1
     3    1   21 1
     4    1   22 1
     5    2    7 ar
     6    2    3 ar
     7    3    4 ar
     8    3   23 1
     9    4    5 ar
    10    4   24 1
    11    5    6 ar
    12    5    9 1
    13    6    7 ar
    14    6    8 1
    15    7   25 1
    16    8   26 1
    17    8   27 1
    18    8   28 1
    19    9   10 am
    20    9   29 1
    21   10   11 2
    22   10   12 1
    23   12   13 1
    24   12   30 1
    25   12   31 1
    26   13   14 1
    27   13   15 1
    28   13   37 1
    29   15   16 2
    30   15   17 am
    31   17   18 1
    32   17   32 1
    33   18   19 1
    34   18   33 1
    35   18   34 1
    36   19   35 1
    37   19   36 1
    38   19   37 1
    39   37   38 1
    40   37   39 1
@<TRIPOS>MOLECULE
ZINC36907773
   44    45     0     0     0
SMALL
USER_CHARGES

@<TRIPOS>ATOM
      1 C1         -0.0187    1.5258    0.0104 C.3       1 <0>        -0.1845
      2 C2          0.0021   -0.0041    0.0020 C.3       1 <0>         0.0297
      3 H1          0.5123   -0.3551   -0.8949 H         1 <0>         0.1376
      4 C3         -1.4337   -0.5331    0.0113 C.3       1 <0>        -0.1665
      5 C4         -1.4079   -2.0642    0.0026 C.3       1 <0>         0.1497
      6 H2         -0.9424   -2.4157   -0.9182 H         1 <0>         0.0965
      7 C5         -0.5995   -2.5582    1.2058 C.3       1 <0>        -0.1225
      8 H3         -0.5296   -3.6455    1.1757 H         1 <0>         0.1264
      9 C6          0.8054   -1.9542    1.1523 C.3       1 <0>         0.0012
     10 N1          0.7134   -0.4897    1.1906 N.4       1 <0>        -0.3851
     11 C7          2.0657    0.0833    1.2183 C.3       1 <0>        -0.0536
     12 C8         -1.2933   -2.1265    2.4994 C.3       1 <0>        -0.1725
     13 N2         -2.7773   -2.5778    0.0863 N.pl3     1 <0>        -0.7427
     14 C9         -3.5426   -2.7183   -1.0737 C.ar      1 <0>         0.1850
     15 C10        -3.0046   -2.3769   -2.3083 C.ar      1 <0>        -0.1404
     16 C11        -3.7638   -2.5175   -3.4531 C.ar      1 <0>        -0.0909
     17 C12        -5.0584   -2.9972   -3.3717 C.ar      1 <0>        -0.0640
     18 C13        -5.5971   -3.3374   -2.1446 C.ar      1 <0>        -0.6239
     19 C14        -4.8411   -3.2051   -0.9962 C.ar      1 <0>        -0.0865
     20 S1         -7.2474   -3.9469   -2.0465 S.o2      1 <0>         2.6988
     21 O1         -7.7018   -3.6781   -0.7272 O.2       1 <0>        -0.9609
     22 O2         -7.9267   -3.4672   -3.1987 O.2       1 <0>        -0.9559
     23 N3         -7.1705   -5.5945   -2.1940 N.pl3     1 <0>        -1.2485
     24 H4          1.0039    1.9031    0.0027 H         1 <0>         0.0858
     25 H5         -0.5459    1.8868   -0.8726 H         1 <0>         0.1064
     26 H6         -0.5289    1.8773    0.9072 H         1 <0>         0.0811
     27 H7         -1.9449   -0.1828    0.9081 H         1 <0>         0.0959
     28 H8         -1.9601   -0.1729   -0.8726 H         1 <0>         0.1150
     29 H9          1.3836   -2.3040    2.0074 H         1 <0>         0.1378
     30 H10         1.2983   -2.2632    0.2305 H         1 <0>         0.1329
     31 H11         1.9990    1.1707    1.2531 H         1 <0>         0.1277
     32 H12         2.5949   -0.2767    2.1006 H         1 <0>         0.1255
     33 H13         2.6068   -0.2189    0.3216 H         1 <0>         0.1235
     34 H14        -2.2951   -2.5545    2.5347 H         1 <0>         0.0836
     35 H15        -0.7175   -2.4783    3.3554 H         1 <0>         0.0807
     36 H16        -1.3615   -1.0390    2.5296 H         1 <0>         0.0563
     37 H17        -3.1526   -2.8203    0.9472 H         1 <0>         0.4070
     38 H18        -1.9940   -2.0017   -2.3725 H         1 <0>         0.1261
     39 H19        -3.3462   -2.2523   -4.4132 H         1 <0>         0.1374
     40 H20        -5.6501   -3.1058   -4.2686 H         1 <0>         0.1454
     41 H21        -5.2608   -3.4756   -0.0385 H         1 <0>         0.1426
     42 H22        -6.3122   -6.0316   -2.3094 H         1 <0>         0.4165
     43 H23        -7.9836   -6.1225   -2.1651 H         1 <0>         0.4242
     44 H24         0.2132   -0.2063    2.0198 H         1 <0>         0.4220
@<TRIPOS>BOND
     1    1    2 1
     2    1   24 1
     3    1   25 1
     4    1   26 1
     5    2    3 1
     6    2   10 1
     7    2    4 1
     8    4    5 1
     9    4   27 1
    10    4   28 1
    11    5    6 1
    12    5    7 1
    13    5   13 1
    14    7    8 1
    15    7    9 1
    16    7   12 1
    17    9   10 1
    18    9   29 1
    19    9   30 1
    20   10   11 1
    21   10   44 1
    22   11   31 1
    23   11   32 1
    24   11   33 1
    25   12   34 1
    26   12   35 1
    27   12   36 1
    28   13   14 1
    29   13   37 1
    30   14   19 ar
    31   14   15 ar
    32   15   16 ar
    33   15   38 1
    34   16   17 ar
    35   16   39 1
    36   17   18 ar
    37   17   40 1
    38   18   19 ar
    39   18   20 1
    40   19   41 1
    41   20   21 2
    42   20   22 2
    43   20   23 1
    44   23   42 1
    45   23   43 1
@<TRIPOS>MOLECULE
ZINC41116619
   39    41     0     0     0
SMALL
USER_CHARGES

@<TRIPOS>ATOM
      1 C1         -0.0167    1.3777    0.0096 C.ar      1 <0>        -0.0991
      2 C2          1.1697    2.0876    0.0021 C.ar      1 <0>        -0.1092
      3 C3          2.3783    1.4178   -0.0143 C.ar      1 <0>        -0.1056
      4 C4          2.4042    0.0310   -0.0230 C.ar      1 <0>         0.0374
      5 C5          1.2117   -0.6826   -0.0129 C.ar      1 <0>         0.0507
      6 C6          0.0021   -0.0041    0.0020 C.ar      1 <0>        -0.1081
      7 O1          1.2145   -2.0436   -0.0133 O.3       1 <0>        -0.2936
      8 C7          2.4336   -2.6847   -0.4041 C.3       1 <0>         0.0339
      9 C8          3.5941   -1.9974    0.3280 C.3       1 <0>         0.0198
     10 H1          3.4543   -2.0880    1.4052 H         1 <0>         0.1080
     11 O2          3.6022   -0.6147   -0.0433 O.3       1 <0>        -0.3166
     12 C9          4.9178   -2.6491   -0.0771 C.3       1 <0>         0.0061
     13 N1          6.0113   -2.0694    0.7143 N.4       1 <0>        -0.5064
     14 C10         7.2823   -2.6951    0.3254 C.3       1 <0>         0.0541
     15 C11         8.4040   -2.1005    1.1372 C.ar      1 <0>        -0.1791
     16 C12         9.2076   -1.1171    0.5900 C.ar      1 <0>        -0.0828
     17 C13        10.2373   -0.5696    1.3318 C.ar      1 <0>        -0.1027
     18 C14        10.4688   -1.0032    2.6243 C.ar      1 <0>        -0.0974
     19 C15         9.6676   -1.9879    3.1785 C.ar      1 <0>         0.0938
     20 C16         8.6267   -2.5349    2.4336 C.ar      1 <0>         0.1017
     21 O3          7.8338   -3.4979    2.9752 O.3       1 <0>        -0.4982
     22 O4          9.8939   -2.4154    4.4495 O.3       1 <0>        -0.4857
     23 H2         -0.9596    1.9040    0.0259 H         1 <0>         0.1413
     24 H3          1.1518    3.1674    0.0087 H         1 <0>         0.1404
     25 H4          3.3037    1.9746   -0.0208 H         1 <0>         0.1371
     26 H5         -0.9261   -0.5562    0.0079 H         1 <0>         0.1421
     27 H6          2.3988   -3.7390   -0.1298 H         1 <0>         0.1320
     28 H7          2.5703   -2.5889   -1.4813 H         1 <0>         0.0896
     29 H8          4.8657   -3.7223    0.1066 H         1 <0>         0.1562
     30 H9          5.1017   -2.4704   -1.1365 H         1 <0>         0.1472
     31 H10         6.0596   -1.0761    0.5442 H         1 <0>         0.4346
     32 H11         7.2301   -3.7683    0.5091 H         1 <0>         0.1388
     33 H12         7.4661   -2.5164   -0.7340 H         1 <0>         0.1424
     34 H13         9.0304   -0.7763   -0.4194 H         1 <0>         0.1420
     35 H14        10.8627    0.1982    0.9008 H         1 <0>         0.1458
     36 H15        11.2745   -0.5743    3.2016 H         1 <0>         0.1477
     37 H16         8.1535   -4.3988    2.8290 H         1 <0>         0.4070
     38 H17         9.4095   -1.9192    5.1235 H         1 <0>         0.4029
     39 H18         5.8412   -2.2349    1.6950 H         1 <0>         0.4321
@<TRIPOS>BOND
     1    1    6 ar
     2    1    2 ar
     3    1   23 1
     4    2    3 ar
     5    2   24 1
     6    3    4 ar
     7    3   25 1
     8    4   11 1
     9    4    5 ar
    10    5    6 ar
    11    5    7 1
    12    6   26 1
    13    7    8 1
    14    8    9 1
    15    8   27 1
    16    8   28 1
    17    9   10 1
    18    9   11 1
    19    9   12 1
    20   12   13 1
    21   12   29 1
    22   12   30 1
    23   13   14 1
    24   13   31 1
    25   13   39 1
    26   14   15 1
    27   14   32 1
    28   14   33 1
    29   15   20 ar
    30   15   16 ar
    31   16   17 ar
    32   16   34 1
    33   17   18 ar
    34   17   35 1
    35   18   19 ar
    36   18   36 1
    37   19   20 ar
    38   19   22 1
    39   20   21 1
    40   21   37 1
    41   22   38 1
@<TRIPOS>MOLECULE
ZINC51035959
   39    41     0     0     0
SMALL
USER_CHARGES

@<TRIPOS>ATOM
      1 C1         -0.6487    1.5077   -0.4741 C.3       1 <0>        -0.1295
      2 C2         -0.4554    0.0152   -0.3965 C.ar      1 <0>        -0.0527
      3 C3         -0.4372   -0.7405   -1.5538 C.ar      1 <0>        -0.1183
      4 C4         -0.2600   -2.1096   -1.4825 C.ar      1 <0>        -0.0734
      5 C5         -0.1004   -2.7229   -0.2540 C.ar      1 <0>        -0.1489
      6 C6         -0.1177   -1.9670    0.9033 C.ar      1 <0>        -0.1010
      7 C7         -0.2907   -0.5974    0.8317 C.ar      1 <0>        -0.1184
      8 C8          0.0918   -4.2156   -0.1762 C.3       1 <0>        -0.0555
      9 H1          0.0769   -4.6367   -1.1815 H         1 <0>         0.1326
     10 C9          1.4367   -4.5228    0.4855 C.3       1 <0>         0.0490
     11 H2          1.4236   -4.1689    1.5164 H         1 <0>         0.1504
     12 C10         1.6807   -6.0331    0.4677 C.3       1 <0>        -0.1891
     13 N1          2.5113   -3.8445   -0.2514 N.4       1 <0>        -0.6304
     14 S1         -1.2464   -4.9473    0.8058 S.3       1 <0>        -0.0084
     15 C11        -2.6747   -4.7513   -0.2072 C.ar      1 <0>         0.1947
     16 C12        -3.9146   -5.2473    0.2028 C.ar      1 <0>        -0.0510
     17 C13        -5.0235   -5.0658   -0.6393 C.ar      1 <0>         0.3139
     18 N2         -6.0793   -5.6274   -0.0208 N.2       1 <0>        -0.4821
     19 H3         -3.8579   -6.2028    2.0770 H         1 <0>         0.4332
     20 C14        -5.7041   -6.1322    1.1216 C.2       1 <0>         0.3223
     21 N3         -4.3809   -5.9258    1.3085 N.pl3     1 <0>        -0.5771
     22 N4         -4.8492   -4.4255   -1.8004 N.ar      1 <0>        -0.4698
     23 C15        -3.6630   -3.9758   -2.1447 C.ar      1 <0>         0.3143
     24 N5         -2.5977   -4.1224   -1.3779 N.ar      1 <0>        -0.5105
     25 H4          0.3218    1.9955   -0.5655 H         1 <0>         0.0798
     26 H5         -1.2604    1.7502   -1.3431 H         1 <0>         0.0745
     27 H6         -1.1472    1.8571    0.4300 H         1 <0>         0.0734
     28 H7         -0.5619   -0.2614   -2.5136 H         1 <0>         0.1319
     29 H8         -0.2465   -2.7002   -2.3867 H         1 <0>         0.1306
     30 H9          0.0066   -2.4462    1.8631 H         1 <0>         0.1270
     31 H10        -0.3004   -0.0064    1.7356 H         1 <0>         0.1308
     32 H11         1.7453   -6.3786   -0.5640 H         1 <0>         0.0886
     33 H12         2.6138   -6.2565    0.9848 H         1 <0>         0.0932
     34 H13         0.8567   -6.5401    0.9698 H         1 <0>         0.1137
     35 H14         2.3504   -2.8485   -0.2397 H         1 <0>         0.4374
     36 H15         3.3982   -4.0471    0.1850 H         1 <0>         0.4408
     37 H16        -6.3552   -6.6412    1.8168 H         1 <0>         0.2397
     38 H17        -3.5562   -3.4630   -3.0891 H         1 <0>         0.2095
     39 H18         2.5234   -4.1720   -1.2057 H         1 <0>         0.4350
@<TRIPOS>BOND
     1    1    2 1
     2    1   25 1
     3    1   26 1
     4    1   27 1
     5    2    7 ar
     6    2    3 ar
     7    3    4 ar
     8    3   28 1
     9    4    5 ar
    10    4   29 1
    11    5    6 ar
    12    5    8 1
    13    6    7 ar
    14    6   30 1
    15    7   31 1
    16    8    9 1
    17    8   10 1
    18    8   14 1
    19   10   11 1
    20   10   12 1
    21   10   13 1
    22   12   32 1
    23   12   33 1
    24   12   34 1
    25   13   35 1
    26   13   36 1
    27   13   39 1
    28   14   15 1
    29   15   24 ar
    30   15   16 ar
    31   16   17 ar
    32   16   21 1
    33   17   18 1
    34   17   22 ar
    35   18   20 2
    36   19   21 1
    37   20   37 1
    38   20   21 1
    39   22   23 ar
    40   23   38 1
    41   23   24 ar
@<TRIPOS>MOLECULE
ZINC61822156
   43    45     0     0     0
SMALL
USER_CHARGES

@<TRIPOS>ATOM
      1 C1         -0.0187    1.5257    0.0104 C.3       1 <0>        -0.1248
      2 C2          1.4164    2.0560   -0.0004 C.3       1 <0>        -0.1249
      3 C3          2.1329    1.5629   -1.2593 C.3       1 <0>        -0.1080
      4 C4          2.1524    0.0337   -1.2687 C.3       1 <0>        -0.0659
      5 C5          0.7180   -0.4972   -1.2572 C.3       1 <0>        -0.1170
      6 C6          0.0021   -0.0041    0.0020 C.3       1 <0>        -0.1247
      7 C7          2.8708   -0.4621   -2.5262 C.3       1 <0>        -0.1356
      8 C8          2.9555   -1.9897   -2.4893 C.3       1 <0>        -0.0104
      9 N1          3.7002   -2.4133   -1.2975 N.4       1 <0>        -0.3818
     10 C9          2.9793   -2.0031   -0.0866 C.3       1 <0>        -0.0077
     11 C10         2.8956   -0.4761   -0.0311 C.3       1 <0>        -0.1396
     12 C11         3.8461   -3.8750   -1.3071 C.3       1 <0>         0.0935
     13 C12         4.7142   -4.3008   -0.1512 C.2       1 <0>        -0.1655
     14 C13         6.0714   -4.4011   -0.2678 C.2       1 <0>         0.0975
     15 S1          6.5178   -4.8988    1.2746 S.3       1 <0>         0.3597
     16 N2          4.9983   -4.9551    1.9787 N.2       1 <0>        -0.2191
     17 N3          4.2079   -4.5909    1.0263 N.2       1 <0>        -0.1857
     18 N4          6.8766   -4.1553   -1.3770 N.pl3     1 <0>        -0.5097
     19 N5          8.2302   -4.3158   -1.2874 N.3       1 <0>        -0.5969
     20 H1         -0.5290    1.8772    0.9072 H         1 <0>         0.0681
     21 H2         -0.5460    1.8867   -0.8726 H         1 <0>         0.0660
     22 H3          1.4011    3.1459    0.0056 H         1 <0>         0.0703
     23 H4          1.9438    1.6952    0.8827 H         1 <0>         0.0643
     24 H5          1.6065    1.9249   -2.1424 H         1 <0>         0.0737
     25 H6          3.1558    1.9393   -1.2663 H         1 <0>         0.0678
     26 H7          0.1901   -0.1367   -2.1400 H         1 <0>         0.0769
     27 H8          0.7338   -1.5870   -1.2629 H         1 <0>         0.0592
     28 H9          0.5295   -0.3652    0.8849 H         1 <0>         0.0645
     29 H10        -1.0205   -0.3814    0.0099 H         1 <0>         0.0702
     30 H11         2.3149   -0.1496   -3.4102 H         1 <0>         0.1140
     31 H12         3.8763   -0.0426   -2.5604 H         1 <0>         0.0881
     32 H13         1.9495   -2.4082   -2.4564 H         1 <0>         0.1338
     33 H14         3.4674   -2.3465   -3.3830 H         1 <0>         0.1296
     34 H15         1.9728   -2.4213   -0.1043 H         1 <0>         0.1338
     35 H16         3.5087   -2.3698    0.7927 H         1 <0>         0.1290
     36 H17         3.9016   -0.0569   -0.0122 H         1 <0>         0.0854
     37 H18         2.3574   -0.1734    0.8671 H         1 <0>         0.1182
     38 H19         2.8640   -4.3387   -1.2141 H         1 <0>         0.1499
     39 H20         4.3084   -4.1879   -2.2433 H         1 <0>         0.1335
     40 H21         6.4763   -3.8702   -2.2133 H         1 <0>         0.4151
     41 H22         8.4642   -5.2475   -0.9790 H         1 <0>         0.3571
     42 H23         8.6785   -4.1024   -2.1658 H         1 <0>         0.3823
     43 H24         4.6144   -1.9863   -1.3042 H         1 <0>         0.4159
@<TRIPOS>BOND
     1    1    6 1
     2    1    2 1
     3    1   20 1
     4    1   21 1
     5    2    3 1
     6    2   22 1
     7    2   23 1
     8    3    4 1
     9    3   24 1
    10    3   25 1
    11    4   11 1
    12    4    5 1
    13    4    7 1
    14    5    6 1
    15    5   26 1
    16    5   27 1
    17    6   28 1
    18    6   29 1
    19    7    8 1
    20    7   30 1
    21    7   31 1
    22    8    9 1
    23    8   32 1
    24    8   33 1
    25    9   10 1
    26    9   12 1
    27    9   43 1
    28   10   11 1
    29   10   34 1
    30   10   35 1
    31   11   36 1
    32   11   37 1
    33   12   13 1
    34   12   38 1
    35   12   39 1
    36   13   17 1
    37   13   14 2
    38   14   15 1
    39   14   18 1
    40   15   16 1
    41   16   17 2
    42   18   19 1
    43   18   40 1
    44   19   41 1
    45   19   42 1
@<TRIPOS>MOLECULE
ZINC01802994
   49    52     0     0     0
SMALL
USER_CHARGES
N-(3-cyano-4,5,6,7-tetrahydrobenzothiophen-2-yl)-2-[(4,7,8-trimethyl-5-oxo-9-thia-2,4-diazabicyclo[4.3.0]nona-2,7,10-trien-3-yl)sulfanyl]acetamide
@<TRIPOS>ATOM
      1 C1         -4.7224   15.2167   -6.7539 C.3       1 <0>        -0.1061
      2 C2         -4.3165   14.4707   -5.5090 C.2       1 <0>        -0.0570
      3 C3         -4.2169   15.1126   -4.3357 C.2       1 <0>        -0.1634
      4 S1         -3.7209   13.8291   -3.2022 S.3       1 <0>         0.1376
      5 C4         -3.6616   12.4667   -4.3376 C.2       1 <0>         0.1142
      6 C5         -4.0290   13.0477   -5.5660 C.2       1 <0>        -0.2459
      7 C6         -4.0662   12.1606   -6.6876 C.2       1 <0>         0.5590
      8 O1         -4.3742   12.5744   -7.7922 O.2       1 <0>        -0.5119
      9 N1         -3.7574   10.8633   -6.5076 N.am      1 <0>        -0.5125
     10 C7         -3.4112   10.3819   -5.2782 C.2       1 <0>         0.3550
     11 N2         -3.3736   11.1756   -4.2272 N.2       1 <0>        -0.5014
     12 S2         -3.0163    8.6748   -5.0929 S.3       1 <0>         0.1158
     13 C8         -2.6526    8.6269   -3.3204 C.3       1 <0>        -0.1583
     14 C9         -2.2787    7.2224   -2.9221 C.2       1 <0>         0.5319
     15 O2         -2.2599    6.3406   -3.7546 O.2       1 <0>        -0.4808
     16 N3         -1.9652    6.9463   -1.6407 N.am      1 <0>        -0.6121
     17 C10        -1.6207    5.6527   -1.2739 C.2       1 <0>         0.0827
     18 C11        -1.2707    5.1773   -0.0190 C.2       1 <0>        -0.1204
     19 C12        -0.9512    3.7654    0.0998 C.2       1 <0>        -0.0617
     20 C13        -1.0317    3.0588   -1.0494 C.2       1 <0>        -0.2018
     21 S3         -1.5238    4.2402   -2.2726 S.3       1 <0>         0.2592
     22 C14        -0.7609    1.5973   -1.2317 C.3       1 <0>        -0.0374
     23 C15        -0.0127    1.0858    0.0080 C.3       1 <0>        -0.1158
     24 C16        -0.7351    1.5825    1.2637 C.3       1 <0>        -0.1201
     25 C17        -0.5508    3.0936    1.4075 C.3       1 <0>        -0.0625
     26 C18        -1.2264    6.0465    1.1182 C.1       1 <0>         0.2649
     27 N4         -1.1913    6.7361    2.0203 N.1       1 <0>        -0.4190
     28 C19        -3.7938    9.9503   -7.6527 C.3       1 <0>         0.0598
     29 C20        -4.4651   16.5703   -4.0450 C.3       1 <0>        -0.0681
     30 H1         -5.8072   15.1893   -6.8565 H         1 <0>         0.0726
     31 H2         -4.3904   16.2524   -6.6813 H         1 <0>         0.0683
     32 H3         -4.2631   14.7481   -7.6243 H         1 <0>         0.0826
     33 H4         -3.5333    8.9412   -2.7603 H         1 <0>         0.1428
     34 H5         -1.8235    9.2997   -3.1014 H         1 <0>         0.1427
     35 H6         -1.9802    7.6515   -0.9749 H         1 <0>         0.4259
     36 H7         -0.1472    1.4455   -2.1196 H         1 <0>         0.0845
     37 H8         -1.7031    1.0599   -1.3396 H         1 <0>         0.0862
     38 H9          0.0021   -0.0041    0.0020 H         1 <0>         0.0759
     39 H10         1.0092    1.4651    0.0003 H         1 <0>         0.0696
     40 H11        -1.7982    1.3558    1.1833 H         1 <0>         0.0685
     41 H12        -0.3244    1.0808    2.1399 H         1 <0>         0.0722
     42 H13         0.4944    3.3126    1.6258 H         1 <0>         0.0806
     43 H14        -1.1789    3.4657    2.2169 H         1 <0>         0.0751
     44 H15        -3.5182    8.9474   -7.3266 H         1 <0>         0.0945
     45 H16        -4.8001    9.9325   -8.0713 H         1 <0>         0.0953
     46 H17        -3.0904   10.2916   -8.4121 H         1 <0>         0.0952
     47 H18        -5.5119   16.7144   -3.7777 H         1 <0>         0.0817
     48 H19        -3.8316   16.8886   -3.2170 H         1 <0>         0.0762
     49 H20        -4.2312   17.1622   -4.9298 H         1 <0>         0.0855
@<TRIPOS>BOND
     1    1    2 1
     2    1   30 1
     3    1   31 1
     4    1   32 1
     5    2    6 1
     6    2    3 2
     7    3    4 1
     8    3   29 1
     9    4    5 1
    10    5   11 1
    11    5    6 2
    12    6    7 1
    13    7    8 2
    14    7    9 am
    15    9   10 1
    16    9   28 1
    17   10   11 2
    18   10   12 1
    19   12   13 1
    20   13   14 1
    21   13   33 1
    22   13   34 1
    23   14   15 2
    24   14   16 am
    25   16   17 1
    26   16   35 1
    27   17   21 1
    28   17   18 2
    29   18   19 1
    30   18   26 1
    31   19   25 1
    32   19   20 2
    33   20   21 1
    34   20   22 1
    35   22   23 1
    36   22   36 1
    37   22   37 1
    38   23   24 1
    39   23   38 1
    40   23   39 1
    41   24   25 1
    42   24   40 1
    43   24   41 1
    44   25   42 1
    45   25   43 1
    46   26   27 3
    47   28   44 1
    48   28   45 1
    49   28   46 1
    50   29   47 1
    51   29   48 1
    52   29   49 1
@<TRIPOS>MOLECULE
ZINC12206164
   40    42     0     0     0
SMALL
USER_CHARGES
N-(3-bromo-4-methyl-phenyl)-4-chloro-3-(1,1,3-trioxo-1,2-thiazolidin-2-yl)benzamide
@<TRIPOS>ATOM
      1 C1         -4.2429   -5.9423    8.4948 C.3       1 <0>        -0.1261
      2 C2         -4.0832   -5.3013    7.1403 C.ar      1 <0>        -0.0672
      3 C3         -4.4661   -5.9879    6.0026 C.ar      1 <0>        -0.0961
      4 C4         -4.3260   -5.4015    4.7602 C.ar      1 <0>        -0.1219
      5 C5         -3.7891   -4.1248    4.6526 C.ar      1 <0>         0.1401
      6 C6         -3.4054   -3.4374    5.7964 C.ar      1 <0>        -0.0878
      7 C7         -3.5534   -4.0274    7.0375 C.ar      1 <0>        -0.0766
      8 Br1        -3.0308   -3.0929    8.5962 Br        1 <0>        -0.0396
      9 N1         -3.6407   -3.5308    3.3953 N.am      1 <0>        -0.6656
     10 C8         -2.5892   -2.7239    3.1510 C.2       1 <0>         0.5634
     11 O1         -1.8161   -2.4449    4.0468 O.2       1 <0>        -0.5031
     12 C9         -2.3760   -2.1783    1.7944 C.ar      1 <0>        -0.1266
     13 C10        -3.2627   -2.4975    0.7638 C.ar      1 <0>        -0.0563
     14 C11        -3.0620   -1.9867   -0.5017 C.ar      1 <0>        -0.1073
     15 C12        -1.9831   -1.1579   -0.7551 C.ar      1 <0>        -0.0010
     16 C13        -1.0943   -0.8348    0.2648 C.ar      1 <0>         0.1404
     17 C14        -1.2849   -1.3474    1.5378 C.ar      1 <0>        -0.0169
     18 N2         -0.0039    0.0037    0.0037 N.am      1 <0>        -0.8812
     19 C15         1.2401   -0.3921   -0.3051 C.2       1 <0>         0.4931
     20 O2          1.5223   -1.5708   -0.3519 O.2       1 <0>        -0.4615
     21 C16         2.2733    0.6554   -0.5914 C.3       1 <0>        -0.1424
     22 C17         1.7880    2.0055   -0.0004 C.3       1 <0>        -0.5796
     23 S1         -0.0221    1.6779    0.0216 S.o2      1 <0>         2.5339
     24 O3         -0.6234    2.0689   -1.2051 O.2       1 <0>        -0.9057
     25 O4         -0.5886    2.0428    1.2727 O.2       1 <0>        -0.9173
     26 Cl1        -1.7379   -0.5201   -2.3509 Cl        1 <0>        -0.0251
     27 H1         -5.2254   -5.6980    8.8988 H         1 <0>         0.0789
     28 H2         -4.1484   -7.0239    8.3984 H         1 <0>         0.0732
     29 H3         -3.4705   -5.5685    9.1670 H         1 <0>         0.0773
     30 H4         -4.8796   -6.9821    6.0862 H         1 <0>         0.1379
     31 H5         -4.6294   -5.9368    3.8726 H         1 <0>         0.1343
     32 H6         -2.9922   -2.4428    5.7163 H         1 <0>         0.1511
     33 H7         -4.2946   -3.6995    2.6989 H         1 <0>         0.4133
     34 H8         -4.1058   -3.1439    0.9577 H         1 <0>         0.1457
     35 H9         -3.7488   -2.2347   -1.2974 H         1 <0>         0.1561
     36 H10        -0.5933   -1.1012    2.3300 H         1 <0>         0.1569
     37 H11         3.2198    0.3725   -0.1306 H         1 <0>         0.1454
     38 H12         2.4055    0.7552   -1.6687 H         1 <0>         0.1411
     39 H13         2.0346    2.8401   -0.6566 H         1 <0>         0.1642
     40 H14         2.1772    2.1638    1.0054 H         1 <0>         0.1587
@<TRIPOS>BOND
     1    1    2 1
     2    1   27 1
     3    1   28 1
     4    1   29 1
     5    2    7 ar
     6    2    3 ar
     7    3    4 ar
     8    3   30 1
     9    4    5 ar
    10    4   31 1
    11    5    6 ar
    12    5    9 1
    13    6    7 ar
    14    6   32 1
    15    7    8 1
    16    9   10 am
    17    9   33 1
    18   10   11 2
    19   10   12 1
    20   12   17 ar
    21   12   13 ar
    22   13   14 ar
    23   13   34 1
    24   14   15 ar
    25   14   35 1
    26   15   16 ar
    27   15   26 1
    28   16   17 ar
    29   16   18 1
    30   17   36 1
    31   18   23 1
    32   18   19 am
    33   19   20 2
    34   19   21 1
    35   21   22 1
    36   21   37 1
    37   21   38 1
    38   22   23 1
    39   22   39 1
    40   22   40 1
    41   23   24 2
    42   23   25 2
@<TRIPOS>MOLECULE
ZINC18707118
   44    46     0     0     0
SMALL
USER_CHARGES
5-bromo-N-(1,5-dimethyl-3-oxo-2-phenyl-pyrazol-4-yl)-2-methyl-benzenesulfonamide
@<TRIPOS>ATOM
      1 C1          0.5866   -0.2910    2.4837 C.3       1 <0>        -0.1665
      2 C2          0.7050    0.3100    3.8605 C.ar      1 <0>         0.0309
      3 C3          1.7728   -0.0262    4.6719 C.ar      1 <0>        -0.1451
      4 C4          1.8815    0.5244    5.9348 C.ar      1 <0>        -0.0325
      5 C5          0.9217    1.4121    6.3871 C.ar      1 <0>        -0.1258
      6 C6         -0.1463    1.7482    5.5751 C.ar      1 <0>         0.0514
      7 C7         -0.2542    1.1969    4.3120 C.ar      1 <0>        -0.6666
      8 S1         -1.6186    1.6193    3.2802 S.o2      1 <0>         2.6983
      9 O1         -2.2117    0.3950    2.8697 O.2       1 <0>        -0.9562
     10 O2         -2.3490    2.6276    3.9652 O.2       1 <0>        -0.9208
     11 N1         -1.0006    2.3266    1.9163 N.pl3     1 <0>        -1.0189
     12 C8         -0.2309    3.5046    2.0194 C.2       1 <0>        -0.0704
     13 C9          0.4236    4.1153    1.0090 C.2       1 <0>         0.1629
     14 N2          1.0532    5.2280    1.5125 N.pl3     1 <0>        -0.3941
     15 N3          0.7750    5.3037    2.8836 N.am      1 <0>        -0.3563
     16 C10        -0.0144    4.2579    3.2019 C.2       1 <0>         0.5286
     17 O3         -0.4588    4.0036    4.3070 O.2       1 <0>        -0.5009
     18 C11         1.2290    6.2914    3.7633 C.ar      1 <0>         0.1466
     19 C12         0.3338    6.9381    4.6055 C.ar      1 <0>        -0.0988
     20 C13         0.7864    7.9087    5.4775 C.ar      1 <0>        -0.0991
     21 C14         2.1275    8.2452    5.5043 C.ar      1 <0>        -0.1139
     22 C15         3.0204    7.6076    4.6627 C.ar      1 <0>        -0.1041
     23 C16         2.5753    6.6317    3.7927 C.ar      1 <0>        -0.1252
     24 C17         1.8729    6.1715    0.7482 C.3       1 <0>         0.1029
     25 C18         0.4574    3.6555   -0.4258 C.3       1 <0>        -0.0986
     26 Br1         1.0695    2.1654    8.1153 Br        1 <0>        -0.0414
     27 H1          1.0933    0.3503    1.7625 H         1 <0>         0.0883
     28 H2          1.0470   -1.2790    2.4777 H         1 <0>         0.0889
     29 H3         -0.4661   -0.3791    2.2149 H         1 <0>         0.0947
     30 H4          2.5219   -0.7194    4.3188 H         1 <0>         0.1388
     31 H5          2.7158    0.2620    6.5684 H         1 <0>         0.1382
     32 H6         -0.8960    2.4408    5.9280 H         1 <0>         0.1586
     33 H7         -1.1677    1.9310    1.0466 H         1 <0>         0.4241
     34 H8         -0.7144    6.6789    4.5819 H         1 <0>         0.1344
     35 H9          0.0916    8.4089    6.1358 H         1 <0>         0.1342
     36 H10         2.4782    9.0075    6.1842 H         1 <0>         0.1302
     37 H11         4.0671    7.8727    4.6861 H         1 <0>         0.1315
     38 H12         3.2733    6.1336    3.1362 H         1 <0>         0.1251
     39 H13         1.8323    5.9137   -0.3101 H         1 <0>         0.1057
     40 H14         1.4915    7.1826    0.8908 H         1 <0>         0.0778
     41 H15         2.9049    6.1201    1.0953 H         1 <0>         0.0738
     42 H16        -0.2025    2.7966   -0.5478 H         1 <0>         0.0924
     43 H17         0.1237    4.4652   -1.0747 H         1 <0>         0.0877
     44 H18         1.4756    3.3723   -0.6926 H         1 <0>         0.0896
@<TRIPOS>BOND
     1    1    2 1
     2    1   27 1
     3    1   28 1
     4    1   29 1
     5    2    7 ar
     6    2    3 ar
     7    3    4 ar
     8    3   30 1
     9    4    5 ar
    10    4   31 1
    11    5    6 ar
    12    5   26 1
    13    6    7 ar
    14    6   32 1
    15    7    8 1
    16    8    9 2
    17    8   10 2
    18    8   11 1
    19   11   12 1
    20   11   33 1
    21   12   16 1
    22   12   13 2
    23   13   14 1
    24   13   25 1
    25   14   15 1
    26   14   24 1
    27   15   16 am
    28   15   18 1
    29   16   17 2
    30   18   23 ar
    31   18   19 ar
    32   19   20 ar
    33   19   34 1
    34   20   21 ar
    35   20   35 1
    36   21   22 ar
    37   21   36 1
    38   22   23 ar
    39   22   37 1
    40   23   38 1
    41   24   39 1
    42   24   40 1
    43   24   41 1
    44   25   42 1
    45   25   43 1
    46   25   44 1
@<TRIPOS>MOLECULE
ZINC39458317
   55    58     0     0     0
SMALL
USER_CHARGES

@<TRIPOS>ATOM
      1 C1         -0.0184    1.5028    0.0103 C.3       1 <0>        -0.1025
      2 C2          0.0021   -0.0041    0.0020 C.2       1 <0>         0.0848
      3 C3          0.0083   -0.7959   -1.1094 C.2       1 <0>        -0.0918
      4 C4          0.0290   -2.1307   -0.6696 C.2       1 <0>        -0.0519
      5 C5          0.0288   -2.1232    0.6981 C.2       1 <0>         0.0498
      6 N1          0.0233   -0.8035    1.0986 N.pl3     1 <0>        -0.7809
      7 S1          0.0361   -0.2775    2.6688 S.o2      1 <0>         2.5837
      8 O1          0.6592   -1.3264    3.3974 O.2       1 <0>        -0.9118
      9 O2          0.6242    1.0149    2.6135 O.2       1 <0>        -0.9340
     10 C6         -1.7131   -0.1487    3.1315 C.3       1 <0>        -0.5687
     11 C7         -1.8268    0.4518    4.5342 C.3       1 <0>        -0.1420
     12 C8         -2.4405    0.7515    2.1308 C.3       1 <0>        -0.1488
     13 C9          0.0307   -3.2771    1.6107 C.ar      1 <0>         0.2791
     14 C10         0.6558   -4.5004    1.3371 C.ar      1 <0>        -0.1942
     15 C11         0.6916   -5.4742    2.3788 C.ar      1 <0>        -0.0153
     16 C12         0.0180   -5.2168    3.5672 C.ar      1 <0>        -0.2084
     17 C13        -0.6460   -4.0172    3.7176 C.ar      1 <0>         0.1838
     18 N2         -0.6167   -3.1058    2.7712 N.ar      1 <0>        -0.5112
     19 S2          1.5766   -6.9823    2.1620 S.3       1 <0>         0.0893
     20 C14         1.3281   -7.8658    3.7268 C.3       1 <0>        -0.2445
     21 C15         1.2212   -4.9029    0.1153 C.2       1 <0>         0.3927
     22 O3          1.7345   -6.0029    0.1189 O.2       1 <0>        -0.4362
     23 C16         1.2817   -4.1884   -1.1615 C.3       1 <0>        -0.1551
     24 C17         0.0546   -3.3739   -1.5055 C.3       1 <0>        -0.0530
     25 C18        -0.0045   -0.3337   -2.5199 C.ar      1 <0>        -0.0445
     26 C19         1.1935   -0.1050   -3.1917 C.ar      1 <0>        -0.0865
     27 C20         1.1766    0.3248   -4.5035 C.ar      1 <0>        -0.1266
     28 C21        -0.0273    0.5295   -5.1538 C.ar      1 <0>        -0.0994
     29 C22        -1.2221    0.3058   -4.4957 C.ar      1 <0>        -0.1456
     30 C23        -1.2190   -0.1317   -3.1813 C.ar      1 <0>         0.1214
     31 O4         -2.3930   -0.3582   -2.5353 O.3       1 <0>        -0.4903
     32 H1          1.0042    1.8801    0.0026 H         1 <0>         0.0933
     33 H2         -0.5455    1.8639   -0.8728 H         1 <0>         0.0881
     34 H3         -0.5286    1.8543    0.9071 H         1 <0>         0.0810
     35 H4         -2.1651   -1.1406    3.1232 H         1 <0>         0.1546
     36 H5         -1.3748    1.4436    4.5425 H         1 <0>         0.0736
     37 H6         -2.8779    0.5292    4.8122 H         1 <0>         0.0901
     38 H7         -1.3086   -0.1896    5.2471 H         1 <0>         0.0726
     39 H8         -2.3595    0.3237    1.1316 H         1 <0>         0.0717
     40 H9         -3.4915    0.8289    2.4089 H         1 <0>         0.0871
     41 H10        -1.9885    1.7434    2.1391 H         1 <0>         0.0756
     42 H11         0.0143   -5.9472    4.3627 H         1 <0>         0.1446
     43 H12        -1.1977   -3.8242    4.6257 H         1 <0>         0.1668
     44 H13         0.2626   -8.0338    3.8839 H         1 <0>         0.0797
     45 H14         1.8454   -8.8245    3.6889 H         1 <0>         0.1079
     46 H15         1.7269   -7.2699    4.5477 H         1 <0>         0.0790
     47 H16         2.1420   -3.5194   -1.1391 H         1 <0>         0.1060
     48 H17         1.4418   -4.9183   -1.9550 H         1 <0>         0.1087
     49 H18        -0.8404   -3.9636   -1.3070 H         1 <0>         0.0839
     50 H19         0.0834   -3.1017   -2.5606 H         1 <0>         0.0949
     51 H20         2.1350   -0.2634   -2.6869 H         1 <0>         0.1280
     52 H21         2.1062    0.5023   -5.0237 H         1 <0>         0.1275
     53 H22        -0.0335    0.8658   -6.1801 H         1 <0>         0.1272
     54 H23        -2.1588    0.4678   -5.0082 H         1 <0>         0.1299
     55 H24        -2.7431    0.4156   -2.0729 H         1 <0>         0.3870
@<TRIPOS>BOND
     1    1    2 1
     2    1   32 1
     3    1   33 1
     4    1   34 1
     5    2    6 1
     6    2    3 2
     7    3    4 1
     8    3   25 1
     9    4   24 1
    10    4    5 2
    11    5    6 1
    12    5   13 1
    13    6    7 1
    14    7    8 2
    15    7    9 2
    16    7   10 1
    17   10   11 1
    18   10   12 1
    19   10   35 1
    20   11   36 1
    21   11   37 1
    22   11   38 1
    23   12   39 1
    24   12   40 1
    25   12   41 1
    26   13   18 ar
    27   13   14 ar
    28   14   15 ar
    29   14   21 1
    30   15   16 ar
    31   15   19 1
    32   16   17 ar
    33   16   42 1
    34   17   18 ar
    35   17   43 1
    36   19   20 1
    37   20   44 1
    38   20   45 1
    39   20   46 1
    40   21   22 2
    41   21   23 1
    42   23   24 1
    43   23   47 1
    44   23   48 1
    45   24   49 1
    46   24   50 1
    47   25   30 ar
    48   25   26 ar
    49   26   27 ar
    50   26   51 1
    51   27   28 ar
    52   27   52 1
    53   28   29 ar
    54   28   53 1
    55   29   30 ar
    56   29   54 1
    57   30   31 1
    58   31   55 1
@<TRIPOS>MOLECULE
ZINC17482572
   42    44     0     0     0
SMALL
USER_CHARGES

@<TRIPOS>ATOM
      1 C1         -0.0185    1.3922   -0.0140 C.ar      1 <0>        -0.0727
      2 C2          1.1681    2.0956   -0.0319 C.ar      1 <0>        -0.0248
      3 C3          2.3758    1.4206   -0.0512 C.ar      1 <0>        -0.6544
      4 C4          2.4022    0.0372   -0.0530 C.ar      1 <0>        -0.0253
      5 C5          1.2229   -0.6783   -0.0357 C.ar      1 <0>        -0.1045
      6 C6          0.0011   -0.0035   -0.0153 C.ar      1 <0>        -0.0821
      7 C7         -1.2665   -0.7637    0.0044 C.2       1 <0>         0.5605
      8 O1         -2.3291   -0.1734    0.0217 O.2       1 <0>        -0.4964
      9 N1         -1.2442   -2.1113    0.0031 N.am      1 <0>        -0.6634
     10 C8         -2.4391   -2.8310    0.1167 C.ar      1 <0>         0.1726
     11 C9         -3.6033   -2.3416   -0.4604 C.ar      1 <0>        -0.0917
     12 C10        -4.7819   -3.0546   -0.3471 C.ar      1 <0>        -0.0077
     13 C11        -4.8022   -4.2563    0.3414 C.ar      1 <0>        -0.0352
     14 C12        -3.6437   -4.7460    0.9174 C.ar      1 <0>        -0.0687
     15 C13        -2.4612   -4.0395    0.8025 C.ar      1 <0>        -0.0511
     16 Cl1        -1.0064   -4.6580    1.5199 Cl        1 <0>        -0.0396
     17 Cl2        -6.2844   -5.1491    0.4824 Cl        1 <0>        -0.0293
     18 Cl3        -6.2380   -2.4433   -1.0679 Cl        1 <0>        -0.0267
     19 S1          3.8868    2.3267   -0.0741 S.o2      1 <0>         2.6889
     20 O2          4.8668    1.4679   -0.6408 O.2       1 <0>        -0.9445
     21 O3          3.5861    3.6040   -0.6194 O.2       1 <0>        -0.9436
     22 N2          4.3312    2.5774    1.5014 N.pl3     1 <0>        -0.9988
     23 C14         3.8808    3.7710    2.2348 C.3       1 <0>         0.0840
     24 C15         3.2797    3.3193    3.5707 C.3       1 <0>         0.0459
     25 O4          4.2147    2.4746    4.2459 O.3       1 <0>        -0.3734
     26 C16         4.5231    1.2664    3.5466 C.3       1 <0>         0.0461
     27 C17         5.1832    1.6101    2.2112 C.3       1 <0>         0.0841
     28 H1         -0.9604    1.9203    0.0055 H         1 <0>         0.1520
     29 H2          1.1544    3.1755   -0.0313 H         1 <0>         0.1514
     30 H3          3.3482   -0.4836   -0.0685 H         1 <0>         0.1502
     31 H4          1.2448   -1.7581   -0.0378 H         1 <0>         0.1375
     32 H5         -0.4000   -2.5823   -0.0766 H         1 <0>         0.4180
     33 H6         -3.5879   -1.4045   -0.9971 H         1 <0>         0.1701
     34 H7         -3.6623   -5.6831    1.4540 H         1 <0>         0.1609
     35 H8          4.7287    4.4309    2.4181 H         1 <0>         0.0890
     36 H9          3.1251    4.2969    1.6513 H         1 <0>         0.1010
     37 H10         3.0663    4.1923    4.1875 H         1 <0>         0.1102
     38 H11         2.3575    2.7680    3.3871 H         1 <0>         0.0566
     39 H12         5.2042    0.6624    4.1461 H         1 <0>         0.1100
     40 H13         3.6054    0.7077    3.3629 H         1 <0>         0.0557
     41 H14         5.2896    0.7057    1.6121 H         1 <0>         0.1006
     42 H15         6.1645    2.0487    2.3921 H         1 <0>         0.0885
@<TRIPOS>BOND
     1    1    6 ar
     2    1    2 ar
     3    1   28 1
     4    2    3 ar
     5    2   29 1
     6    3    4 ar
     7    3   19 1
     8    4    5 ar
     9    4   30 1
    10    5    6 ar
    11    5   31 1
    12    6    7 1
    13    7    8 2
    14    7    9 am
    15    9   10 1
    16    9   32 1
    17   10   15 ar
    18   10   11 ar
    19   11   12 ar
    20   11   33 1
    21   12   13 ar
    22   12   18 1
    23   13   14 ar
    24   13   17 1
    25   14   15 ar
    26   14   34 1
    27   15   16 1
    28   19   20 2
    29   19   21 2
    30   19   22 1
    31   22   27 1
    32   22   23 1
    33   23   24 1
    34   23   35 1
    35   23   36 1
    36   24   25 1
    37   24   37 1
    38   24   38 1
    39   25   26 1
    40   26   27 1
    41   26   39 1
    42   26   40 1
    43   27   41 1
    44   27   42 1
@<TRIPOS>MOLECULE
ZINC47146460
   45    49     0     0     0
SMALL
USER_CHARGES

@<TRIPOS>ATOM
      1 C1         -0.0173    1.4248    0.0099 C.3       1 <0>         0.0245
      2 O1          0.0021   -0.0041    0.0020 O.3       1 <0>        -0.3138
      3 C2         -1.2007   -0.6377    0.0101 C.ar      1 <0>         0.1270
      4 C3         -2.3742    0.1022    0.0195 C.ar      1 <0>        -0.1878
      5 C4         -3.5961   -0.5409    0.0272 C.ar      1 <0>        -0.0954
      6 C5         -3.6501   -1.9280    0.0256 C.ar      1 <0>         0.0746
      7 C6         -2.4757   -2.6679    0.0162 C.ar      1 <0>        -0.0942
      8 C7         -1.2543   -2.0240    0.0032 C.ar      1 <0>        -0.1300
      9 N1         -4.8918   -2.5821    0.0340 N.am      1 <0>        -0.5201
     10 C8         -5.0202   -3.9349    0.0383 C.2       1 <0>         0.5526
     11 O2         -4.1474   -4.7504   -0.1685 O.2       1 <0>        -0.4241
     12 C9         -6.4565   -4.2142    0.3500 C.3       1 <0>        -0.1242
     13 H1         -6.6019   -4.2129    1.4303 H         1 <0>         0.1466
     14 C10        -7.1166   -5.4321   -0.2464 C.3       1 <0>         0.0711
     15 H2         -7.0207   -5.4060   -1.3318 H         1 <0>         0.1179
     16 C11        -8.5709   -5.4199    0.1325 C.2       1 <0>        -0.2084
     17 C12        -9.3433   -4.3894    0.5413 C.2       1 <0>         0.0943
     18 N2        -10.6439   -4.7182    0.8319 N.am      1 <0>        -0.6383
     19 H3        -11.2592   -4.0356    1.1423 H         1 <0>         0.4146
     20 C13       -11.0656   -5.9888    0.6856 C.2       1 <0>         0.4707
     21 O3        -12.1761   -6.4451    0.8935 O.2       1 <0>        -0.4541
     22 S1         -9.6909   -6.7948    0.1466 S.3       1 <0>         0.0990
     23 S2         -8.6824   -2.7335    0.6648 S.3       1 <0>         0.0358
     24 C14        -7.1324   -2.9528   -0.2670 C.3       1 <0>        -0.1385
     25 H4         -7.3039   -3.0666   -1.3374 H         1 <0>         0.1690
     26 C15        -6.0792   -1.9234    0.0443 C.2       1 <0>         0.5641
     27 O4         -6.2548   -0.7433    0.2591 O.2       1 <0>        -0.4307
     28 C16        -6.4598   -6.6778    0.2901 C.ar      1 <0>        -0.0861
     29 C17        -6.4687   -6.9332    1.6487 C.ar      1 <0>        -0.0886
     30 C18        -5.8665   -8.0755    2.1414 C.ar      1 <0>        -0.1063
     31 C19        -5.2547   -8.9635    1.2746 C.ar      1 <0>        -0.0242
     32 C20        -5.2461   -8.7073   -0.0850 C.ar      1 <0>        -0.1053
     33 C21        -5.8536   -7.5675   -0.5770 C.ar      1 <0>        -0.0764
     34 Cl1        -4.4976  -10.3982    1.8927 Cl        1 <0>        -0.0653
     35 H5          1.0053    1.8021    0.0021 H         1 <0>         0.1034
     36 H6         -0.5445    1.7859   -0.8732 H         1 <0>         0.0577
     37 H7         -0.5275    1.7763    0.9067 H         1 <0>         0.0578
     38 H8         -2.3321    1.1814    0.0211 H         1 <0>         0.1379
     39 H9         -4.5096    0.0351    0.0349 H         1 <0>         0.1548
     40 H10        -2.5173   -3.7471    0.0150 H         1 <0>         0.1604
     41 H11        -0.3405   -2.5995   -0.0083 H         1 <0>         0.1416
     42 H12        -6.9460   -6.2398    2.3253 H         1 <0>         0.1287
     43 H13        -5.8732   -8.2748    3.2028 H         1 <0>         0.1360
     44 H14        -4.7684   -9.3999   -0.7621 H         1 <0>         0.1372
     45 H15        -5.8511   -7.3698   -1.6388 H         1 <0>         0.1347
@<TRIPOS>BOND
     1    1    2 1
     2    1   35 1
     3    1   36 1
     4    1   37 1
     5    2    3 1
     6    3    8 ar
     7    3    4 ar
     8    4    5 ar
     9    4   38 1
    10    5    6 ar
    11    5   39 1
    12    6    7 ar
    13    6    9 1
    14    7    8 ar
    15    7   40 1
    16    8   41 1
    17    9   26 am
    18    9   10 am
    19   10   11 2
    20   10   12 1
    21   12   13 1
    22   12   24 1
    23   12   14 1
    24   14   15 1
    25   14   16 1
    26   14   28 1
    27   16   22 1
    28   16   17 2
    29   17   18 1
    30   17   23 1
    31   18   19 1
    32   18   20 am
    33   20   21 2
    34   20   22 1
    35   23   24 1
    36   24   25 1
    37   24   26 1
    38   26   27 2
    39   28   33 ar
    40   28   29 ar
    41   29   30 ar
    42   29   42 1
    43   30   31 ar
    44   30   43 1
    45   31   32 ar
    46   31   34 1
    47   32   33 ar
    48   32   44 1
    49   33   45 1
@<TRIPOS>MOLECULE
ZINC02159567
   49    53     0     0     0
SMALL
USER_CHARGES
allyl-(3-bromophenyl)BLAHdione
@<TRIPOS>ATOM
      1 C1          4.4188    4.0392   -0.1113 C.2       1 <0>        -0.1722
      2 C2          4.1541    2.7607   -0.0037 C.2       1 <0>        -0.1748
      3 C3          3.5039    2.2286    1.2473 C.3       1 <0>         0.1341
      4 N1          2.2851    1.4978    0.8913 N.am      1 <0>        -0.5984
      5 C4          1.0356    2.2379    0.8322 C.3       1 <0>         0.1039
      6 C5         -0.1280    1.3517    0.5274 C.2       1 <0>         0.5109
      7 O1         -1.2278    1.8602    0.4753 O.2       1 <0>        -0.4963
      8 N2         -0.0380    0.0393    0.3033 N.am      1 <0>        -0.5932
      9 C6          1.2349   -0.6791    0.2580 C.3       1 <0>         0.1346
     10 H1          1.1928   -1.5155    0.9557 H         1 <0>         0.1214
     11 C7          2.3861    0.1939    0.6410 C.2       1 <0>         0.5200
     12 O2          3.4821   -0.3179    0.7290 O.2       1 <0>        -0.5206
     13 C8          1.4530   -1.2262   -1.1600 C.3       1 <0>        -0.0432
     14 C9          0.1726   -1.8610   -1.6390 C.2       1 <0>        -0.1501
     15 C10        -0.0137   -2.7872   -2.7375 C.ar      1 <0>        -0.0997
     16 C11         0.8736   -3.3631   -3.6518 C.ar      1 <0>        -0.0644
     17 C12         0.3370   -4.2176   -4.5831 C.ar      1 <0>        -0.1471
     18 C13        -1.0180   -4.5032   -4.6250 C.ar      1 <0>        -0.0945
     19 C14        -1.9181   -3.9485   -3.7318 C.ar      1 <0>        -0.1300
     20 C15        -1.4017   -3.0770   -2.7749 C.ar      1 <0>         0.1078
     21 N3         -1.9913   -2.3718   -1.7655 N.pl3     1 <0>        -0.5714
     22 H2         -2.9385   -2.3821   -1.5568 H         1 <0>         0.4180
     23 C16        -1.0437   -1.6484   -1.0915 C.2       1 <0>         0.0553
     24 C17        -1.2773   -0.7398    0.0941 C.3       1 <0>         0.2532
     25 H3         -1.4947   -1.3356    0.9806 H         1 <0>         0.1083
     26 C18        -2.4262    0.1922   -0.1929 C.ar      1 <0>        -0.0376
     27 C19        -3.4572    0.3199    0.7194 C.ar      1 <0>        -0.1008
     28 C20        -4.5085    1.1788    0.4593 C.ar      1 <0>        -0.1026
     29 C21        -4.5351    1.9020   -0.7185 C.ar      1 <0>        -0.0954
     30 C22        -3.5068    1.7704   -1.6340 C.ar      1 <0>        -0.0790
     31 C23        -2.4520    0.9149   -1.3706 C.ar      1 <0>        -0.0590
     32 Br1        -3.5430    2.7590   -3.2456 Br        1 <0>        -0.0556
     33 H4          4.8848    4.4205   -1.0079 H         1 <0>         0.1023
     34 H5          4.1711    4.7118    0.6965 H         1 <0>         0.0996
     35 H6          4.4018    2.0881   -0.8116 H         1 <0>         0.1122
     36 H7          3.2502    3.0589    1.9063 H         1 <0>         0.0880
     37 H8          4.1940    1.5571    1.7580 H         1 <0>         0.1035
     38 H9          1.1124    3.0006    0.0573 H         1 <0>         0.1116
     39 H10         0.8671    2.7261    1.7920 H         1 <0>         0.1150
     40 H11         1.7282   -0.4101   -1.8280 H         1 <0>         0.0806
     41 H12         2.2490   -1.9707   -1.1458 H         1 <0>         0.1018
     42 H13         1.9313   -3.1464   -3.6265 H         1 <0>         0.1303
     43 H14         0.9919   -4.6819   -5.3055 H         1 <0>         0.1200
     44 H15        -1.3845   -5.1823   -5.3805 H         1 <0>         0.1226
     45 H16        -2.9720   -4.1804   -3.7744 H         1 <0>         0.1290
     46 H17        -3.4392   -0.2486    1.6375 H         1 <0>         0.1237
     47 H18        -5.3114    1.2815    1.1742 H         1 <0>         0.1296
     48 H19        -5.3589    2.5695   -0.9239 H         1 <0>         0.1286
     49 H20        -1.6490    0.8115   -2.0854 H         1 <0>         0.1198
@<TRIPOS>BOND
     1    1    2 2
     2    1   33 1
     3    1   34 1
     4    2    3 1
     5    2   35 1
     6    3    4 1
     7    3   36 1
     8    3   37 1
     9    4   11 am
    10    4    5 1
    11    5    6 1
    12    5   38 1
    13    5   39 1
    14    6    7 2
    15    6    8 am
    16    8   24 1
    17    8    9 1
    18    9   10 1
    19    9   11 1
    20    9   13 1
    21   11   12 2
    22   13   14 1
    23   13   40 1
    24   13   41 1
    25   14   23 2
    26   14   15 1
    27   15   20 ar
    28   15   16 ar
    29   16   17 ar
    30   16   42 1
    31   17   18 ar
    32   17   43 1
    33   18   19 ar
    34   18   44 1
    35   19   20 ar
    36   19   45 1
    37   20   21 1
    38   21   22 1
    39   21   23 1
    40   23   24 1
    41   24   25 1
    42   24   26 1
    43   26   31 ar
    44   26   27 ar
    45   27   28 ar
    46   27   46 1
    47   28   29 ar
    48   28   47 1
    49   29   30 ar
    50   29   48 1
    51   30   31 ar
    52   30   32 1
    53   31   49 1
@<TRIPOS>MOLECULE
ZINC23043078
   50    52     0     0     0
SMALL
USER_CHARGES
(3S)-N-(2-chloro-4,6-dimethyl-phenyl)-1-[(5-methyl-2-thienyl)sulfonyl]piperidine-3-carboxamide
@<TRIPOS>ATOM
      1 C1         -4.7646    4.0818   -8.9346 C.3       1 <0>        -0.0859
      2 C2         -4.4600    3.4446   -7.6033 C.2       1 <0>        -0.0960
      3 C3         -3.7932    2.2943   -7.3401 C.2       1 <0>        -0.2004
      4 C4         -3.6266    1.9018   -6.0252 C.2       1 <0>         0.0031
      5 C5         -4.1444    2.6733   -5.0383 C.2       1 <0>        -0.7713
      6 S1         -4.8845    4.0088   -5.9635 S.3       1 <0>         0.1566
      7 S2         -4.0934    2.4263   -3.2945 S.o2      1 <0>         2.7245
      8 O1         -3.9192    1.0314   -3.0868 O.2       1 <0>        -0.9439
      9 O2         -5.1909    3.1463   -2.7501 O.2       1 <0>        -0.9454
     10 N1         -2.7198    3.1633   -2.7355 N.pl3     1 <0>        -0.9947
     11 C6         -2.7444    4.5700   -2.3119 C.3       1 <0>         0.1101
     12 C7         -2.1796    4.6670   -0.8912 C.3       1 <0>        -0.1303
     13 C8         -0.7916    4.0234   -0.8533 C.3       1 <0>        -0.1095
     14 C9         -0.9031    2.5439   -1.2288 C.3       1 <0>        -0.1170
     15 H1         -1.5688    2.0263   -0.5224 H         1 <0>         0.1094
     16 C10        -1.4535    2.4228   -2.6533 C.3       1 <0>         0.1353
     17 C11         0.4593    1.9035   -1.1598 C.2       1 <0>         0.5318
     18 O3          0.9421    1.3970   -2.1505 O.2       1 <0>        -0.5224
     19 N2          1.1435    1.8984    0.0013 N.am      1 <0>        -0.6940
     20 C12         2.3637    1.2185    0.0917 C.ar      1 <0>         0.1395
     21 C13         3.5560    1.8971   -0.1230 C.ar      1 <0>        -0.0599
     22 C14         4.7584    1.2236   -0.0327 C.ar      1 <0>        -0.1138
     23 C15         4.7765   -0.1254    0.2712 C.ar      1 <0>        -0.0629
     24 C16         3.5916   -0.8049    0.4857 C.ar      1 <0>        -0.1144
     25 C17         2.3850   -0.1358    0.4021 C.ar      1 <0>        -0.0212
     26 Cl1         0.8977   -0.9877    0.6779 Cl        1 <0>        -0.0582
     27 C18         6.0906   -0.8566    0.3683 C.3       1 <0>        -0.1195
     28 C19         3.5380    3.3672   -0.4537 C.3       1 <0>        -0.1108
     29 H2         -4.3514    3.4595   -9.7420 H         1 <0>         0.0891
     30 H3         -4.3106    5.0830   -8.9743 H         1 <0>         0.0874
     31 H4         -5.8541    4.1680   -9.0591 H         1 <0>         0.0879
     32 H5         -3.3939    1.6957   -8.1455 H         1 <0>         0.1447
     33 H6         -3.0944    0.9925   -5.7879 H         1 <0>         0.1473
     34 H7         -2.1305    5.1706   -2.9991 H         1 <0>         0.0745
     35 H8         -3.7803    4.9396   -2.3275 H         1 <0>         0.0987
     36 H9         -2.1031    5.7246   -0.5985 H         1 <0>         0.0859
     37 H10        -2.8484    4.1410   -0.1940 H         1 <0>         0.0752
     38 H11        -0.1310    4.5341   -1.5694 H         1 <0>         0.0749
     39 H12        -0.3732    4.1134    0.1600 H         1 <0>         0.0743
     40 H13        -1.6311    1.3647   -2.8958 H         1 <0>         0.1027
     41 H14        -0.7335    2.8470   -3.3686 H         1 <0>         0.0834
     42 H15         0.7431    2.4285    0.8780 H         1 <0>         0.4314
     43 H16         5.6859    1.7512   -0.1999 H         1 <0>         0.1323
     44 H17         3.6091   -1.8584    0.7228 H         1 <0>         0.1363
     45 H18         5.9054   -1.9121    0.6164 H         1 <0>         0.0697
     46 H19         6.7081   -0.3980    1.1546 H         1 <0>         0.0757
     47 H20         6.6174   -0.7934   -0.5953 H         1 <0>         0.0756
     48 H21         4.5693    3.7255   -0.5878 H         1 <0>         0.0698
     49 H22         3.0610    3.9220    0.3677 H         1 <0>         0.0724
     50 H23         2.9705    3.5272   -1.3824 H         1 <0>         0.0719
@<TRIPOS>BOND
     1    1    2 1
     2    1   29 1
     3    1   30 1
     4    1   31 1
     5    2    6 1
     6    2    3 2
     7    3    4 1
     8    3   32 1
     9    4    5 2
    10    4   33 1
    11    5    6 1
    12    5    7 1
    13    7    8 2
    14    7    9 2
    15    7   10 1
    16   10   16 1
    17   10   11 1
    18   11   12 1
    19   11   34 1
    20   11   35 1
    21   12   13 1
    22   12   36 1
    23   12   37 1
    24   13   14 1
    25   13   38 1
    26   13   39 1
    27   14   15 1
    28   14   16 1
    29   14   17 1
    30   16   40 1
    31   16   41 1
    32   17   18 2
    33   17   19 am
    34   19   20 1
    35   19   42 1
    36   20   25 ar
    37   20   21 ar
    38   21   22 ar
    39   21   28 1
    40   22   23 ar
    41   22   43 1
    42   23   24 ar
    43   23   27 1
    44   24   25 ar
    45   24   44 1
    46   25   26 1
    47   27   45 1
    48   27   46 1
    49   27   47 1
    50   28   48 1
    51   28   49 1
    52   28   50 1
@<TRIPOS>MOLECULE
ZINC40940302
   45    48     0     0     0
SMALL
USER_CHARGES

@<TRIPOS>ATOM
      1 C1         -0.0173    1.4248    0.0099 C.3       1 <0>         0.0286
      2 O1          0.0021   -0.0041    0.0020 O.3       1 <0>        -0.2993
      3 C2         -1.1980   -0.6362    0.0101 C.ar      1 <0>         0.2176
      4 C3         -2.3748    0.1106    0.0195 C.ar      1 <0>        -0.2012
      5 C4         -3.5987   -0.4807    0.0278 C.ar      1 <0>        -0.0313
      6 C5         -3.7232   -1.8821    0.0271 C.ar      1 <0>        -0.0925
      7 C6         -4.9843   -2.5014    0.0356 C.ar      1 <0>        -0.0824
      8 C7         -5.0675   -3.8610    0.0342 C.ar      1 <0>        -0.1332
      9 C8         -3.9200   -4.6492    0.0250 C.ar      1 <0>        -0.0881
     10 C9         -2.6803   -4.0803    0.0171 C.ar      1 <0>        -0.1285
     11 C10        -2.5587   -2.6869    0.0173 C.ar      1 <0>         0.0200
     12 C11        -1.2479   -2.0347    0.0030 C.ar      1 <0>        -0.1617
     13 C12        -0.0190   -2.8265   -0.0125 C.2       1 <0>         0.1206
     14 C13         0.9553   -2.5533   -0.9232 C.2       1 <0>        -0.2381
     15 C14         0.9972   -1.5191   -1.9725 C.2       1 <0>         0.5480
     16 O2          0.0772   -0.7388   -2.1376 O.2       1 <0>        -0.4326
     17 N1          2.0836   -1.4802   -2.7254 N.am      1 <0>        -0.3228
     18 C15         3.1007   -2.3461   -2.5390 C.2       1 <0>         0.2714
     19 S1          4.5759   -2.4557   -3.4010 S.2       1 <0>        -0.3015
     20 S2          2.5388   -3.3453   -1.1700 S.3       1 <0>         0.0973
     21 N2          2.1799   -0.5185   -3.7396 N.am      1 <0>        -0.5207
     22 C16         2.9768    0.5561   -3.5758 C.2       1 <0>         0.5767
     23 O3          3.6119    0.6908   -2.5481 O.2       1 <0>        -0.4986
     24 C17         3.0784    1.5705   -4.6456 C.ar      1 <0>        -0.1227
     25 C18         2.3458    1.4215   -5.8247 C.ar      1 <0>        -0.0686
     26 C19         2.4444    2.3716   -6.8192 C.ar      1 <0>        -0.1145
     27 C20         3.2682    3.4722   -6.6501 C.ar      1 <0>        -0.0048
     28 C21         3.9975    3.6255   -5.4826 C.ar      1 <0>        -0.1147
     29 C22         3.9031    2.6847   -4.4789 C.ar      1 <0>        -0.0374
     30 Cl1         3.3876    4.6639   -7.9068 Cl        1 <0>        -0.0534
     31 H1          1.0053    1.8021    0.0021 H         1 <0>         0.1000
     32 H2         -0.5445    1.7859   -0.8732 H         1 <0>         0.0602
     33 H3         -0.5275    1.7763    0.9067 H         1 <0>         0.0596
     34 H4         -2.3126    1.1889    0.0206 H         1 <0>         0.1349
     35 H5         -4.4872    0.1333    0.0353 H         1 <0>         0.1354
     36 H6         -5.8831   -1.9025    0.0434 H         1 <0>         0.1302
     37 H7         -6.0381   -4.3346    0.0408 H         1 <0>         0.1265
     38 H8         -4.0126   -5.7252    0.0245 H         1 <0>         0.1280
     39 H9         -1.7974   -4.7024    0.0103 H         1 <0>         0.1282
     40 H10         0.1159   -3.6282    0.6985 H         1 <0>         0.1603
     41 H11         1.6731   -0.6260   -4.5597 H         1 <0>         0.4285
     42 H12         1.7034    0.5636   -5.9578 H         1 <0>         0.1348
     43 H13         1.8784    2.2572   -7.7319 H         1 <0>         0.1453
     44 H14         4.6382    4.4857   -5.3564 H         1 <0>         0.1467
     45 H15         4.4687    2.8076   -3.5671 H         1 <0>         0.1496
@<TRIPOS>BOND
     1    1    2 1
     2    1   31 1
     3    1   32 1
     4    1   33 1
     5    2    3 1
     6    3   12 ar
     7    3    4 ar
     8    4    5 ar
     9    4   34 1
    10    5    6 ar
    11    5   35 1
    12    6   11 ar
    13    6    7 ar
    14    7    8 ar
    15    7   36 1
    16    8    9 ar
    17    8   37 1
    18    9   10 ar
    19    9   38 1
    20   10   11 ar
    21   10   39 1
    22   11   12 ar
    23   12   13 1
    24   13   14 2
    25   13   40 1
    26   14   20 1
    27   14   15 1
    28   15   16 2
    29   15   17 am
    30   17   18 1
    31   17   21 1
    32   18   19 2
    33   18   20 1
    34   21   22 am
    35   21   41 1
    36   22   23 2
    37   22   24 1
    38   24   29 ar
    39   24   25 ar
    40   25   26 ar
    41   25   42 1
    42   26   27 ar
    43   26   43 1
    44   27   28 ar
    45   27   30 1
    46   28   29 ar
    47   28   44 1
    48   29   45 1
@<TRIPOS>MOLECULE
ZINC04653919
   54    56     0     0     0
SMALL
USER_CHARGES

@<TRIPOS>ATOM
      1 C1          0.0045    1.4943   -0.3525 C.3       1 <0>        -0.1222
      2 C2          0.0253   -0.0318   -0.2448 C.3       1 <0>        -0.0833
      3 C3          0.7573   -0.7865   -1.3963 C.3       1 <0>        -0.1118
      4 C4          1.0788   -2.1794   -0.8081 C.3       1 <0>        -0.1314
      5 C5          0.5108   -2.1351    0.6434 C.3       1 <0>        -0.0931
      6 H1          0.9170   -2.8716    1.3367 H         1 <0>         0.0983
      7 C6          0.7605   -0.6288    1.0068 C.3       1 <0>        -0.1203
      8 C7         -1.0372   -2.1550    0.4575 C.3       1 <0>        -0.0701
      9 C8         -1.3657   -0.7252   -0.1198 C.3       1 <0>         0.1578
     10 H2         -1.8296   -0.8260   -1.1010 H         1 <0>         0.0957
     11 N1         -2.2356    0.0338    0.7821 N.am      1 <0>        -0.7107
     12 C9         -3.5749   -0.0589    0.6630 C.2       1 <0>         0.5510
     13 O1         -4.0612   -0.7724   -0.1931 O.2       1 <0>        -0.4937
     14 C10        -4.4510    0.7056    1.5714 C.ar      1 <0>        -0.0645
     15 C11        -3.8934    1.5307    2.5521 C.ar      1 <0>        -0.1700
     16 C12        -4.7161    2.2455    3.4015 C.ar      1 <0>         0.1322
     17 C13        -6.1001    2.1447    3.2814 C.ar      1 <0>         0.0746
     18 C14        -6.6587    1.3243    2.3062 C.ar      1 <0>         0.1375
     19 C15        -5.8400    0.6106    1.4490 C.ar      1 <0>        -0.0897
     20 Br1        -6.5995   -0.4978    0.1184 Br        1 <0>         0.0142
     21 O2         -8.0107    1.2279    2.1921 O.3       1 <0>        -0.3169
     22 C16        -8.6655    0.2695    3.0257 C.3       1 <0>         0.0361
     23 O3         -6.9064    2.8487    4.1187 O.3       1 <0>        -0.3158
     24 C17        -7.2907    4.1596    3.6993 C.3       1 <0>         0.0369
     25 O4         -4.1737    3.0481    4.3563 O.3       1 <0>        -0.2963
     26 C18        -2.7474    3.1038    4.4235 C.3       1 <0>         0.0189
     27 C19        -1.7340   -2.3415    1.8068 C.3       1 <0>        -0.1323
     28 C20        -1.4438   -3.2664   -0.5122 C.3       1 <0>        -0.1390
     29 H3          1.0265    1.8680   -0.4157 H         1 <0>         0.0635
     30 H4         -0.5457    1.7880   -1.2464 H         1 <0>         0.0613
     31 H5         -0.4820    1.9141    0.5280 H         1 <0>         0.0541
     32 H6          0.1040   -0.8818   -2.2636 H         1 <0>         0.0665
     33 H7          1.6764   -0.2669   -1.6670 H         1 <0>         0.0690
     34 H8          0.5836   -2.9595   -1.3863 H         1 <0>         0.0768
     35 H9          2.1560   -2.3447   -0.7897 H         1 <0>         0.0634
     36 H10         1.8219   -0.3806    1.0143 H         1 <0>         0.0731
     37 H11         0.2731   -0.3472    1.9401 H         1 <0>         0.0660
     38 H12        -1.8476    0.6031    1.4650 H         1 <0>         0.3941
     39 H13        -2.8204    1.6092    2.6462 H         1 <0>         0.1444
     40 H14        -9.7442    0.3458    2.8890 H         1 <0>         0.1025
     41 H15        -8.3350   -0.7333    2.7552 H         1 <0>         0.0518
     42 H16        -8.4167    0.4651    4.0687 H         1 <0>         0.0557
     43 H17        -6.3989    4.7486    3.4852 H         1 <0>         0.0485
     44 H18        -7.9036    4.0885    2.8008 H         1 <0>         0.0530
     45 H19        -7.8628    4.6416    4.4922 H         1 <0>         0.0987
     46 H20        -2.3538    2.1067    4.6209 H         1 <0>         0.0603
     47 H21        -2.3530    3.4690    3.4752 H         1 <0>         0.0596
     48 H22        -2.4475    3.7782    5.2256 H         1 <0>         0.1090
     49 H23        -1.4465   -1.5331    2.4791 H         1 <0>         0.0510
     50 H24        -2.8144   -2.3274    1.6629 H         1 <0>         0.0549
     51 H25        -1.4377   -3.2969    2.2398 H         1 <0>         0.0533
     52 H26        -0.9984   -4.2085   -0.1924 H         1 <0>         0.0568
     53 H27        -2.5295   -3.3622   -0.5206 H         1 <0>         0.0601
     54 H28        -1.0930   -3.0204   -1.5145 H         1 <0>         0.0607
@<TRIPOS>BOND
     1    1    2 1
     2    1   29 1
     3    1   30 1
     4    1   31 1
     5    2    7 1
     6    2    9 1
     7    2    3 1
     8    3    4 1
     9    3   32 1
    10    3   33 1
    11    4    5 1
    12    4   34 1
    13    4   35 1
    14    5    6 1
    15    5    7 1
    16    5    8 1
    17    7   36 1
    18    7   37 1
    19    8    9 1
    20    8   27 1
    21    8   28 1
    22    9   10 1
    23    9   11 1
    24   11   12 am
    25   11   38 1
    26   12   13 2
    27   12   14 1
    28   14   19 ar
    29   14   15 ar
    30   15   16 ar
    31   15   39 1
    32   16   17 ar
    33   16   25 1
    34   17   18 ar
    35   17   23 1
    36   18   19 ar
    37   18   21 1
    38   19   20 1
    39   21   22 1
    40   22   40 1
    41   22   41 1
    42   22   42 1
    43   23   24 1
    44   24   43 1
    45   24   44 1
    46   24   45 1
    47   25   26 1
    48   26   46 1
    49   26   47 1
    50   26   48 1
    51   27   49 1
    52   27   50 1
    53   27   51 1
    54   28   52 1
    55   28   53 1
    56   28   54 1
@<TRIPOS>MOLECULE
ZINC16009633
   37    40     0     0     0
SMALL
USER_CHARGES

@<TRIPOS>ATOM
      1 C1         -0.0169    1.3926    0.0097 C.ar      1 <0>        -0.0710
      2 C2          1.1695    2.0953    0.0021 C.ar      1 <0>        -0.1149
      3 C3          2.3783    1.4190   -0.0130 C.ar      1 <0>        -0.0064
      4 C4          2.4038    0.0341   -0.0207 C.ar      1 <0>        -0.1110
      5 C5          1.2243   -0.6801   -0.0137 C.ar      1 <0>        -0.0524
      6 C6          0.0021   -0.0041    0.0020 C.ar      1 <0>        -0.0799
      7 C7         -1.2647   -0.7627    0.0105 C.2       1 <0>         0.3560
      8 N1         -2.5364   -0.2080    0.0201 N.pl3     1 <0>        -0.5860
      9 O1         -3.4126   -1.2183   -0.5198 O.3       1 <0>        -0.0963
     10 C8         -2.8821   -2.3831    0.1313 C.3       1 <0>         0.0502
     11 H1         -3.2181   -2.4741    1.1642 H         1 <0>         0.1410
     12 C9         -1.3736   -2.1156    0.0044 C.2       1 <0>        -0.3815
     13 H2         -2.7852    0.6778    0.3270 H         1 <0>         0.4591
     14 C10        -0.8512   -3.4039   -0.1528 C.2       1 <0>         0.6284
     15 O2          0.2725   -3.7519    0.1637 O.2       1 <0>        -0.4677
     16 N2         -1.7860   -4.1999   -0.7088 N.am      1 <0>        -0.5350
     17 C11        -3.0374   -3.6641   -0.6400 C.2       1 <0>         0.5519
     18 O3         -4.0597   -4.1129   -1.1129 O.2       1 <0>        -0.4325
     19 C12        -1.5061   -5.4490   -1.2796 C.ar      1 <0>         0.1223
     20 C13        -1.5570   -6.5970   -0.5005 C.ar      1 <0>        -0.0354
     21 C14        -1.2811   -7.8266   -1.0658 C.ar      1 <0>        -0.1726
     22 C15        -0.9543   -7.9158   -2.4066 C.ar      1 <0>        -0.0395
     23 C16        -0.9025   -6.7749   -3.1859 C.ar      1 <0>        -0.1018
     24 C17        -1.1826   -5.5418   -2.6275 C.ar      1 <0>         0.0096
     25 Cl1        -1.1244   -4.1103   -3.6079 Cl        1 <0>        -0.0326
     26 C18        -1.3359   -9.0728   -0.2202 C.3       1 <0>         0.5130
     27 F1         -2.6285   -9.6065   -0.2592 F         1 <0>        -0.1704
     28 F2         -0.4277  -10.0139   -0.7171 F         1 <0>        -0.1708
     29 F3         -1.0022   -8.7551    1.1008 F         1 <0>        -0.1721
     30 Cl2         3.8676    2.3110   -0.0230 Cl        1 <0>        -0.0529
     31 H3         -0.9587    1.9209    0.0260 H         1 <0>         0.1370
     32 H4          1.1562    3.1752    0.0077 H         1 <0>         0.1448
     33 H5          3.3494   -0.4874   -0.0325 H         1 <0>         0.1467
     34 H6          1.2455   -1.7598   -0.0205 H         1 <0>         0.1550
     35 H7         -1.8118   -6.5285    0.5468 H         1 <0>         0.1520
     36 H8         -0.7387   -8.8786   -2.8458 H         1 <0>         0.1566
     37 H9         -0.6469   -6.8478   -4.2327 H         1 <0>         0.1591
@<TRIPOS>BOND
     1    1    6 ar
     2    1    2 ar
     3    1   31 1
     4    2    3 ar
     5    2   32 1
     6    3    4 ar
     7    3   30 1
     8    4    5 ar
     9    4   33 1
    10    5    6 ar
    11    5   34 1
    12    6    7 1
    13    7   12 2
    14    7    8 1
    15    8    9 1
    16    8   13 1
    17    9   10 1
    18   10   11 1
    19   10   17 1
    20   10   12 1
    21   12   14 1
    22   14   15 2
    23   14   16 am
    24   16   17 am
    25   16   19 1
    26   17   18 2
    27   19   24 ar
    28   19   20 ar
    29   20   21 ar
    30   20   35 1
    31   21   22 ar
    32   21   26 1
    33   22   23 ar
    34   22   36 1
    35   23   24 ar
    36   23   37 1
    37   24   25 1
    38   26   27 1
    39   26   28 1
    40   26   29 1
@<TRIPOS>MOLECULE
ZINC03120709
   24    25     0     0     0
SMALL
USER_CHARGES
(1R,2R,4R,5S)-2-methylnorbornane-2,5-diol
@<TRIPOS>ATOM
      1 C1          3.4553   -0.4995    1.6162 C.3       1 <0>        -0.1749
      2 C2          2.0304    0.0157    1.4039 C.3       1 <0>         0.1220
      3 C3          2.0095    1.5614    1.4124 C.3       1 <0>        -0.1483
      4 C4          1.4842    1.9563   -0.0016 C.3       1 <0>        -0.0905
      5 H1          1.6942    2.9774   -0.3199 H         1 <0>         0.1059
      6 C5          2.0965    0.8021   -0.8713 C.3       1 <0>        -0.1226
      7 C6          1.5158   -0.3777   -0.0144 C.3       1 <0>        -0.0839
      8 H2          1.7534   -1.3892   -0.3439 H         1 <0>         0.1035
      9 C7          0.0021   -0.0041    0.0020 C.3       1 <0>        -0.1516
     10 C8         -0.0189    1.5416    0.0105 C.3       1 <0>         0.1001
     11 H3         -0.5075    1.9100    0.9125 H         1 <0>         0.0582
     12 O1         -0.6818    2.0372   -1.1543 O.3       1 <0>        -0.5665
     13 O2          1.1578   -0.4998    2.4112 O.3       1 <0>        -0.5562
     14 H4          4.1149   -0.0637    0.8658 H         1 <0>         0.0686
     15 H5          3.7996   -0.2165    2.6109 H         1 <0>         0.0590
     16 H6          3.4666   -1.5855    1.5231 H         1 <0>         0.0642
     17 H7          1.3335    1.9280    2.1849 H         1 <0>         0.0749
     18 H8          3.0140    1.9542    1.5699 H         1 <0>         0.0765
     19 H9          3.1864    0.8169   -0.8612 H         1 <0>         0.0731
     20 H10         1.7017    0.8024   -1.8873 H         1 <0>         0.0806
     21 H11        -0.4762   -0.3955    0.8999 H         1 <0>         0.0843
     22 H12        -0.4951   -0.3859   -0.8897 H         1 <0>         0.0705
     23 H13        -1.6074    1.7665   -1.2253 H         1 <0>         0.3777
     24 H14         1.4293   -0.2854    3.3142 H         1 <0>         0.3753
@<TRIPOS>BOND
     1    1    2 1
     2    1   14 1
     3    1   15 1
     4    1   16 1
     5    2    7 1
     6    2    3 1
     7    2   13 1
     8    3    4 1
     9    3   17 1
    10    3   18 1
    11    4    5 1
    12    4   10 1
    13    4    6 1
    14    6    7 1
    15    6   19 1
    16    6   20 1
    17    7    8 1
    18    7    9 1
    19    9   10 1
    20    9   21 1
    21    9   22 1
    22   10   11 1
    23   10   12 1
    24   12   23 1
    25   13   24 1
@<TRIPOS>MOLECULE
ZINC34933668
   13    12     0     0     0
SMALL
USER_CHARGES

@<TRIPOS>ATOM
      1 C1         -0.0187    1.5258    0.0104 C.3       1 <0>        -0.1549
      2 C2          0.0021   -0.0041    0.0020 C.3       1 <0>         0.0472
      3 H1          0.5123   -0.3556   -0.8948 H         1 <0>         0.0809
      4 C3          0.7421   -0.5109    1.2415 C.3       1 <0>         0.4546
      5 F1          0.0872   -0.0597    2.3926 F         1 <0>        -0.1716
      6 F2          0.7610   -1.9098    1.2339 F         1 <0>        -0.1859
      7 F3          2.0546   -0.0267    1.2316 F         1 <0>        -0.1810
      8 N1         -1.3761   -0.5125    0.0124 N.3       1 <0>        -0.8376
      9 H2          1.0039    1.9031    0.0027 H         1 <0>         0.0754
     10 H3         -0.5459    1.8868   -0.8726 H         1 <0>         0.0781
     11 H4         -0.5289    1.8773    0.9072 H         1 <0>         0.0790
     12 H5         -1.8861   -0.1914   -0.7968 H         1 <0>         0.3624
     13 H6         -1.3895   -1.5197    0.0721 H         1 <0>         0.3533
@<TRIPOS>BOND
     1    1    2 1
     2    1    9 1
     3    1   10 1
     4    1   11 1
     5    2    3 1
     6    2    4 1
     7    2    8 1
     8    4    5 1
     9    4    6 1
    10    4    7 1
    11    8   12 1
    12    8   13 1
@<TRIPOS>MOLECULE
ZINC39061014
   21    21     0     0     0
SMALL
USER_CHARGES

@<TRIPOS>ATOM
      1 C1         -0.0184    1.5028    0.0103 C.3       1 <0>        -0.1026
      2 C2          0.0021   -0.0041    0.0020 C.2       1 <0>        -0.0948
      3 C3          0.0084   -0.7886   -1.0709 C.2       1 <0>        -0.1692
      4 C4          0.0297   -2.1955   -0.6574 C.2       1 <0>         0.5400
      5 O1          0.0401   -3.1455   -1.4166 O.2       1 <0>        -0.5271
      6 N1          0.0366   -2.2806    0.6861 N.am      1 <0>        -0.7190
      7 C5          0.0259   -0.9091    1.2118 C.3       1 <0>         0.1519
      8 H1         -0.8649   -0.7485    1.8191 H         1 <0>         0.1105
      9 C6          1.2850   -0.6487    2.0410 C.3       1 <0>         0.0748
     10 O2          1.2360   -1.4267    3.2387 O.3       1 <0>        -0.5720
     11 C7         -0.0043   -0.3050   -2.4981 C.3       1 <0>        -0.0945
     12 H2          1.0042    1.8801    0.0026 H         1 <0>         0.0836
     13 H3         -0.5455    1.8639   -0.8728 H         1 <0>         0.0812
     14 H4         -0.5286    1.8543    0.9071 H         1 <0>         0.0767
     15 H5          0.0501   -3.0968    1.2102 H         1 <0>         0.4267
     16 H6          2.1654   -0.9279    1.4622 H         1 <0>         0.0556
     17 H7          1.3390    0.4094    2.2970 H         1 <0>         0.0661
     18 H8          2.0043   -1.3113    3.8144 H         1 <0>         0.3878
     19 H9          1.0201   -0.1742   -2.8466 H         1 <0>         0.0763
     20 H10        -0.5107   -1.0384   -3.1257 H         1 <0>         0.0746
     21 H11        -0.5317    0.6472   -2.5544 H         1 <0>         0.0734
@<TRIPOS>BOND
     1    1    2 1
     2    1   12 1
     3    1   13 1
     4    1   14 1
     5    2    7 1
     6    2    3 2
     7    3    4 1
     8    3   11 1
     9    4    5 2
    10    4    6 am
    11    6    7 1
    12    6   15 1
    13    7    8 1
    14    7    9 1
    15    9   10 1
    16    9   16 1
    17    9   17 1
    18   10   18 1
    19   11   19 1
    20   11   20 1
    21   11   21 1
@<TRIPOS>MOLECULE
ZINC39136332
   17    18     0     0     0
SMALL
USER_CHARGES

@<TRIPOS>ATOM
      1 C1         -0.0167    1.3829    0.0096 C.ar      1 <0>        -0.1189
      2 C2          1.1626    2.0942    0.0022 C.ar      1 <0>        -0.0720
      3 C3          2.3802    1.4139   -0.0130 C.ar      1 <0>        -0.1375
      4 C4          3.7891    1.8328   -0.0234 C.2       1 <0>         0.0088
      5 C5          4.5145    0.7028   -0.0360 C.2       1 <0>        -0.0073
      6 O1          3.6990   -0.3694   -0.0344 O.3       1 <0>        -0.1761
      7 C6          2.4048    0.0107   -0.0208 C.ar      1 <0>         0.0336
      8 C7          1.2015   -0.6922   -0.0133 C.ar      1 <0>         0.1184
      9 C8          0.0021   -0.0041    0.0020 C.ar      1 <0>        -0.1138
     10 O2          1.2068   -2.0518   -0.0209 O.3       1 <0>        -0.4888
     11 O3          4.2632    3.1093   -0.0212 O.3       1 <0>        -0.4611
     12 H1         -0.9606    1.9074    0.0260 H         1 <0>         0.1386
     13 H2          1.1447    3.1741    0.0078 H         1 <0>         0.1335
     14 H3          5.5936    0.6598   -0.0462 H         1 <0>         0.2154
     15 H4         -0.9288   -0.5517    0.0083 H         1 <0>         0.1451
     16 H5          1.2166   -2.4500    0.8602 H         1 <0>         0.3925
     17 H6          4.4079    3.4736    0.8628 H         1 <0>         0.3896
@<TRIPOS>BOND
     1    1    9 ar
     2    1    2 ar
     3    1   12 1
     4    2    3 ar
     5    2   13 1
     6    3    7 ar
     7    3    4 1
     8    4    5 2
     9    4   11 1
    10    5    6 1
    11    5   14 1
    12    6    7 1
    13    7    8 ar
    14    8    9 ar
    15    8   10 1
    16    9   15 1
    17   10   16 1
    18   11   17 1
@<TRIPOS>MOLECULE
ZINC12956316
   16    17     0     0     0
SMALL
USER_CHARGES

@<TRIPOS>ATOM
      1 C1         -0.0177    1.4570    0.0101 C.2       1 <0>        -0.1244
      2 C2          1.2652    1.8569   -0.0000 C.2       1 <0>        -0.0051
      3 N1          2.0854    0.7590   -0.0138 N.pl3     1 <0>        -0.5656
      4 H1          3.0549    0.7904   -0.0226 H         1 <0>         0.4162
      5 C3          1.3431   -0.3814   -0.0128 C.2       1 <0>         0.2850
      6 C4          0.0021   -0.0041    0.0020 C.2       1 <0>        -0.2645
      7 C5         -1.0263   -1.0428    0.0058 C.2       1 <0>         0.4300
      8 O1         -2.2137   -0.7553    0.0183 O.2       1 <0>        -0.5128
      9 C6         -0.6004   -2.3938   -0.0059 C.2       1 <0>        -0.3016
     10 C7          0.7182   -2.6772   -0.0199 C.2       1 <0>         0.1671
     11 N2          1.6670   -1.7098   -0.0230 N.pl3     1 <0>        -0.5927
     12 H2          2.6023   -1.9669   -0.0337 H         1 <0>         0.4121
     13 H3         -0.8919    2.0911    0.0258 H         1 <0>         0.1530
     14 H4          1.5982    2.8843    0.0020 H         1 <0>         0.1802
     15 H5         -1.3274   -3.1924   -0.0032 H         1 <0>         0.1523
     16 H6          1.0287   -3.7116   -0.0284 H         1 <0>         0.1707
@<TRIPOS>BOND
     1    1    6 1
     2    1    2 2
     3    1   13 1
     4    2    3 1
     5    2   14 1
     6    3    4 1
     7    3    5 1
     8    5   11 1
     9    5    6 2
    10    6    7 1
    11    7    8 2
    12    7    9 1
    13    9   10 2
    14    9   15 1
    15   10   11 1
    16   10   16 1
    17   11   12 1
@<TRIPOS>MOLECULE
ZINC26506459
   17    17     0     0     0
SMALL
USER_CHARGES
(4-bromo-3-methyl-isoxazol-5-yl)methanamine
@<TRIPOS>ATOM
      1 C1         -0.0127    1.0858    0.0080 C.3       1 <0>        -0.0986
      2 C2         -0.7181    1.5718    1.2479 C.2       1 <0>         0.0554
      3 C3         -2.0998    1.8401    1.3864 C.2       1 <0>        -0.1665
      4 C4         -2.2276    2.2420    2.6741 C.2       1 <0>        -0.0885
      5 O1         -0.9974    2.2066    3.2064 O.3       1 <0>         0.1425
      6 N1         -0.1755    1.8332    2.4020 N.2       1 <0>        -0.3173
      7 C5         -3.4999    2.6540    3.3688 C.3       1 <0>         0.0952
      8 N2         -4.1217    1.4770    3.9901 N.4       1 <0>        -0.6858
      9 Br1        -3.4555    1.6726    0.0788 Br        1 <0>         0.0560
     10 H1         -0.7441    0.9577   -0.8035 H         1 <0>         0.0943
     11 H2          0.4751    0.1224    0.2175 H         1 <0>         0.0971
     12 H3          0.7458    1.8226   -0.2949 H         1 <0>         0.0979
     13 H4         -3.2694    3.3993    4.1443 H         1 <0>         0.1632
     14 H5         -4.1934    3.0908    2.6351 H         1 <0>         0.1599
     15 H6         -5.0504    1.7777    4.4972 H         1 <0>         0.4721
     16 H7         -3.4282    1.0403    4.7238 H         1 <0>         0.4646
     17 H8         -4.3521    0.7317    3.2145 H         1 <0>         0.4586
@<TRIPOS>BOND
     1    1    2 1
     2    1   10 1
     3    1   11 1
     4    1   12 1
     5    2    6 2
     6    2    3 1
     7    3    4 2
     8    3    9 1
     9    4    5 1
    10    4    7 1
    11    5    6 1
    12    7    8 1
    13    7   13 1
    14    7   14 1
    15    8   15 1
    16    8   16 1
    17    8   17 1
@<TRIPOS>MOLECULE
ZINC37677147
   34    35     0     0     0
SMALL
USER_CHARGES

@<TRIPOS>ATOM
      1 C1         -2.3659    0.8516   -0.7245 C.3       1 <0>        -0.0855
      2 C2         -1.4943   -0.2886   -0.2649 C.2       1 <0>        -0.2229
      3 C3         -0.1788   -0.5346   -0.6713 C.2       1 <0>         0.0958
      4 N1          0.2442   -1.6102   -0.0581 N.2       1 <0>        -0.3570
      5 N2         -0.7905   -2.0834    0.7593 N.pl3     1 <0>        -0.3917
      6 C4         -1.8442   -1.2521    0.6185 C.2       1 <0>         0.0883
      7 C5         -0.7361   -3.2681    1.6193 C.3       1 <0>         0.1525
      8 H1         -1.4773   -3.9940    1.2850 H         1 <0>         0.1144
      9 C6         -1.0343   -2.8634    3.0644 C.3       1 <0>        -0.1304
     10 C7          0.0060   -1.8443    3.5336 C.3       1 <0>        -0.0959
     11 H2         -0.2064   -1.5560    4.5631 H         1 <0>         0.0877
     12 C8          1.4013   -2.4673    3.4560 C.3       1 <0>        -0.1122
     13 C9          1.6995   -2.8720    2.0110 C.3       1 <0>        -0.1552
     14 C10         0.6591   -3.8911    1.5417 C.3       1 <0>         0.0371
     15 H3          0.6996   -4.7725    2.1816 H         1 <0>         0.1552
     16 N3          0.9454   -4.2797    0.1543 N.4       1 <0>        -0.6375
     17 C11        -0.0507   -0.6070    2.6354 C.3       1 <0>        -0.1845
     18 H4         -2.2242    1.7066   -0.0634 H         1 <0>         0.0693
     19 H5         -2.0928    1.1302   -1.7423 H         1 <0>         0.0705
     20 H6         -3.4109    0.5428   -0.7003 H         1 <0>         0.0669
     21 H7          0.3897    0.0606   -1.3706 H         1 <0>         0.1938
     22 H8         -2.7969   -1.3413    1.1192 H         1 <0>         0.1799
     23 H9         -2.0283   -2.4195    3.1196 H         1 <0>         0.0923
     24 H10        -0.9939   -3.7448    3.7043 H         1 <0>         0.0989
     25 H11         2.1424   -1.7414    3.7904 H         1 <0>         0.0861
     26 H12         1.4417   -3.3488    4.0960 H         1 <0>         0.0750
     27 H13         1.6590   -1.9906    1.3711 H         1 <0>         0.1178
     28 H14         2.6935   -3.3159    1.9557 H         1 <0>         0.0885
     29 H15         1.0145   -3.4524   -0.4193 H         1 <0>         0.4401
     30 H16         1.8173   -4.7864    0.1200 H         1 <0>         0.4353
     31 H17        -1.0885   -0.3003    2.5046 H         1 <0>         0.0584
     32 H18         0.5123    0.2037    3.0978 H         1 <0>         0.0528
     33 H19         0.3836   -0.8431    1.6639 H         1 <0>         0.0869
     34 H20         0.2012   -4.8671   -0.1909 H         1 <0>         0.4296
@<TRIPOS>BOND
     1    1    2 1
     2    1   18 1
     3    1   19 1
     4    1   20 1
     5    2    6 2
     6    2    3 1
     7    3    4 2
     8    3   21 1
     9    4    5 1
    10    5    6 1
    11    5    7 1
    12    6   22 1
    13    7    8 1
    14    7   14 1
    15    7    9 1
    16    9   10 1
    17    9   23 1
    18    9   24 1
    19   10   11 1
    20   10   12 1
    21   10   17 1
    22   12   13 1
    23   12   25 1
    24   12   26 1
    25   13   14 1
    26   13   27 1
    27   13   28 1
    28   14   15 1
    29   14   16 1
    30   16   29 1
    31   16   30 1
    32   16   34 1
    33   17   31 1
    34   17   32 1
    35   17   33 1
@<TRIPOS>MOLECULE
ZINC42237339
   36    37     0     0     0
SMALL
USER_CHARGES

@<TRIPOS>ATOM
      1 C1         -0.0187    1.5258    0.0104 C.3       1 <0>        -0.1166
      2 C2          1.4167    2.0553   -0.0004 C.3       1 <0>        -0.1267
      3 C3          2.1328    1.5619   -1.2592 C.3       1 <0>        -0.1514
      4 C4          2.1536    0.0321   -1.2676 C.3       1 <0>         0.0889
      5 H1          2.6638   -0.3194   -2.1644 H         1 <0>         0.0803
      6 C5          0.7182   -0.4975   -1.2568 C.3       1 <0>         0.0379
      7 H2          0.1910   -0.1364   -2.1398 H         1 <0>         0.1459
      8 C6          0.0021   -0.0041    0.0020 C.3       1 <0>        -0.1398
      9 N1          0.7381   -1.9663   -1.2649 N.4       1 <0>        -0.3734
     10 C7          1.4332   -2.4381   -2.4685 C.3       1 <0>        -0.0151
     11 C8          1.5281   -3.9652   -2.4418 C.3       1 <0>        -0.1410
     12 C9          0.1168   -4.5582   -2.3999 C.3       1 <0>        -0.1738
     13 C10        -0.6244   -4.0013   -1.1810 C.3       1 <0>         0.0931
     14 H3         -0.1155   -4.3169   -0.2702 H         1 <0>         0.0775
     15 C11        -0.6395   -2.4729   -1.2544 C.3       1 <0>        -0.0102
     16 O1         -1.9662   -4.4927   -1.1728 O.3       1 <0>        -0.5505
     17 O2          2.8447   -0.4413   -0.1099 O.3       1 <0>        -0.5698
     18 H4         -0.5289    1.8773    0.9072 H         1 <0>         0.0866
     19 H5         -0.5459    1.8868   -0.8726 H         1 <0>         0.0732
     20 H6          1.4019    3.1452    0.0056 H         1 <0>         0.0789
     21 H7          1.9439    1.6943    0.8826 H         1 <0>         0.0772
     22 H8          1.6057    1.9230   -2.1423 H         1 <0>         0.0836
     23 H9          3.1554    1.9392   -1.2670 H         1 <0>         0.0878
     24 H10         0.5293   -0.3651    0.8851 H         1 <0>         0.0959
     25 H11        -1.0205   -0.3814    0.0098 H         1 <0>         0.0877
     26 H12         0.8798   -2.1244   -3.3536 H         1 <0>         0.1298
     27 H13         2.4363   -2.0127   -2.4985 H         1 <0>         0.1333
     28 H14         2.0429   -4.3136   -3.3371 H         1 <0>         0.1170
     29 H15         2.0816   -4.2800   -1.5571 H         1 <0>         0.0903
     30 H16        -0.4201   -4.2859   -3.3086 H         1 <0>         0.0912
     31 H17         0.1796   -5.6437   -2.3237 H         1 <0>         0.0976
     32 H18        -1.1665   -2.0732   -0.3881 H         1 <0>         0.1400
     33 H19        -1.1487   -2.1584   -2.1654 H         1 <0>         0.1358
     34 H20        -2.0317   -5.4566   -1.1304 H         1 <0>         0.4045
     35 H21         3.7630   -0.1438   -0.0510 H         1 <0>         0.4058
     36 H22         1.2242   -2.2996   -0.4459 H         1 <0>         0.4284
@<TRIPOS>BOND
     1    1    8 1
     2    1    2 1
     3    1   18 1
     4    1   19 1
     5    2    3 1
     6    2   20 1
     7    2   21 1
     8    3    4 1
     9    3   22 1
    10    3   23 1
    11    4    5 1
    12    4    6 1
    13    4   17 1
    14    6    7 1
    15    6    8 1
    16    6    9 1
    17    8   24 1
    18    8   25 1
    19    9   15 1
    20    9   10 1
    21    9   36 1
    22   10   11 1
    23   10   26 1
    24   10   27 1
    25   11   12 1
    26   11   28 1
    27   11   29 1
    28   12   13 1
    29   12   30 1
    30   12   31 1
    31   13   14 1
    32   13   15 1
    33   13   16 1
    34   15   32 1
    35   15   33 1
    36   16   34 1
    37   17   35 1
@<TRIPOS>MOLECULE
ZINC36305189
   37    38     0     0     0
SMALL
USER_CHARGES

@<TRIPOS>ATOM
      1 C1         -0.0669    1.6442    0.3073 C.3       1 <0>        -0.1574
      2 C2         -0.0546    0.1266    0.1139 C.3       1 <0>         0.0765
      3 H1          0.3229   -0.1098   -0.8810 H         1 <0>         0.0547
      4 C3         -1.4771   -0.4179    0.2622 C.3       1 <0>        -0.1112
      5 C4         -1.4570   -1.9390    0.0878 C.3       1 <0>        -0.1283
      6 C5         -0.5077   -2.5508    1.1218 C.3       1 <0>        -0.1235
      7 C6          0.8867   -1.9445    0.9487 C.3       1 <0>         0.0398
      8 N1          0.8140   -0.4886    1.1256 N.3       1 <0>        -0.5406
      9 C7          2.1545    0.1118    1.1038 C.3       1 <0>         0.0103
     10 H2          2.0893    1.1352    0.7345 H         1 <0>         0.1201
     11 C8          3.0666   -0.7063    0.1859 C.3       1 <0>         0.0396
     12 O1          3.1956   -2.0321    0.7033 O.3       1 <0>        -0.3614
     13 C9          3.7792   -2.0957    2.0062 C.3       1 <0>         0.0568
     14 C10         2.8958   -1.3334    2.9973 C.3       1 <0>        -0.1889
     15 C11         2.7371    0.1150    2.5205 C.3       1 <0>         0.0414
     16 H3          3.7107    0.6050    2.5133 H         1 <0>         0.1439
     17 N2          1.8293    0.8350    3.4235 N.4       1 <0>        -0.6283
     18 H4          0.9131    2.0504    0.0568 H         1 <0>         0.0572
     19 H5         -0.8209    2.0873   -0.3433 H         1 <0>         0.0769
     20 H6         -0.3016    1.8763    1.3461 H         1 <0>         0.0586
     21 H7         -1.8603   -0.1701    1.2520 H         1 <0>         0.0706
     22 H8         -2.1183    0.0271   -0.4988 H         1 <0>         0.0741
     23 H9         -2.4613   -2.3359    0.2356 H         1 <0>         0.0701
     24 H10        -1.1107   -2.1861   -0.9157 H         1 <0>         0.0628
     25 H11        -0.8756   -2.3366    2.1253 H         1 <0>         0.0655
     26 H12        -0.4563   -3.6297    0.9751 H         1 <0>         0.0733
     27 H13         1.5616   -2.3676    1.6927 H         1 <0>         0.1032
     28 H14         1.2597   -2.1710   -0.0502 H         1 <0>         0.0588
     29 H15         2.6342   -0.7467   -0.8139 H         1 <0>         0.1112
     30 H16         4.0495   -0.2374    0.1383 H         1 <0>         0.0711
     31 H17         3.8602   -3.1370    2.3178 H         1 <0>         0.1177
     32 H18         4.7714   -1.6450    1.9825 H         1 <0>         0.0675
     33 H19         1.9160   -1.8081    3.0517 H         1 <0>         0.1117
     34 H20         3.3615   -1.3433    3.9827 H         1 <0>         0.0998
     35 H21         0.9300    0.3776    3.4313 H         1 <0>         0.4407
     36 H22         2.2140    0.8365    4.3563 H         1 <0>         0.4331
     37 H23         1.7203    1.7856    3.1031 H         1 <0>         0.4326
@<TRIPOS>BOND
     1    1    2 1
     2    1   18 1
     3    1   19 1
     4    1   20 1
     5    2    3 1
     6    2    8 1
     7    2    4 1
     8    4    5 1
     9    4   21 1
    10    4   22 1
    11    5    6 1
    12    5   23 1
    13    5   24 1
    14    6    7 1
    15    6   25 1
    16    6   26 1
    17    7    8 1
    18    7   27 1
    19    7   28 1
    20    8    9 1
    21    9   10 1
    22    9   15 1
    23    9   11 1
    24   11   12 1
    25   11   29 1
    26   11   30 1
    27   12   13 1
    28   13   14 1
    29   13   31 1
    30   13   32 1
    31   14   15 1
    32   14   33 1
    33   14   34 1
    34   15   16 1
    35   15   17 1
    36   17   35 1
    37   17   36 1
    38   17   37 1
@<TRIPOS>MOLECULE
ZINC63066905
   37    38     0     0     0
SMALL
USER_CHARGES

@<TRIPOS>ATOM
      1 C1         -0.2709    1.5481    0.9624 C.3       1 <0>        -0.1323
      2 C2         -0.2122    0.1295    0.3924 C.3       1 <0>         0.0784
      3 C3         -1.6382   -0.3687    0.0765 C.3       1 <0>        -0.1503
      4 C4         -2.0018   -1.2060    1.3310 C.3       1 <0>        -0.1383
      5 C5         -0.6356   -1.8419    1.6895 C.3       1 <0>         0.0106
      6 N1          0.3600   -0.7899    1.3931 N.3       1 <0>        -0.5079
      7 C6          1.6177   -1.3761    0.9110 C.3       1 <0>         0.0082
      8 H1          2.0198   -0.7629    0.1045 H         1 <0>         0.1305
      9 C7          2.6276   -1.4364    2.0600 C.3       1 <0>         0.0769
     10 O1          3.8298   -2.0596    1.6036 O.3       1 <0>        -0.3650
     11 C8          3.6553   -3.4048    1.1541 C.3       1 <0>         0.0606
     12 C9          2.6867   -3.4236   -0.0314 C.3       1 <0>        -0.1735
     13 C10         1.3566   -2.7942    0.3944 C.3       1 <0>        -0.0124
     14 H2          0.9074   -3.3938    1.1862 H         1 <0>         0.1552
     15 N2          0.4470   -2.7378   -0.7578 N.4       1 <0>        -0.6461
     16 C11         0.6414    0.1137   -0.8772 C.3       1 <0>        -0.1793
     17 H3          0.7356    1.8781    1.2198 H         1 <0>         0.0675
     18 H4         -0.6947    2.2217    0.2175 H         1 <0>         0.0684
     19 H5         -0.8952    1.5553    1.8558 H         1 <0>         0.0707
     20 H6         -2.3234    0.4713   -0.0380 H         1 <0>         0.1058
     21 H7         -1.6393   -0.9929   -0.8170 H         1 <0>         0.0596
     22 H8         -2.3582   -0.5657    2.1379 H         1 <0>         0.0987
     23 H9         -2.7378   -1.9726    1.0889 H         1 <0>         0.0893
     24 H10        -0.6055   -2.1058    2.7466 H         1 <0>         0.1100
     25 H11        -0.4530   -2.7218    1.0726 H         1 <0>         0.0344
     26 H12         2.8495   -0.4256    2.4024 H         1 <0>         0.1226
     27 H13         2.2079   -2.0151    2.8828 H         1 <0>         0.0670
     28 H14         4.6175   -3.8121    0.8437 H         1 <0>         0.1199
     29 H15         3.2490   -4.0093    1.9650 H         1 <0>         0.0677
     30 H16         3.1108   -2.8527   -0.8574 H         1 <0>         0.0983
     31 H17         2.5180   -4.4530   -0.3476 H         1 <0>         0.1044
     32 H18         0.9512   -2.4115   -1.5686 H         1 <0>         0.4340
     33 H19         0.0773   -3.6588   -0.9398 H         1 <0>         0.4321
     34 H20         1.6033    0.5845   -0.6741 H         1 <0>         0.0924
     35 H21         0.8011   -0.9167   -1.1949 H         1 <0>         0.0208
     36 H22         0.1281    0.6621   -1.6670 H         1 <0>         0.0915
     37 H23        -0.3121   -2.1045   -0.5563 H         1 <0>         0.4298
@<TRIPOS>BOND
     1    1    2 1
     2    1   17 1
     3    1   18 1
     4    1   19 1
     5    2    6 1
     6    2    3 1
     7    2   16 1
     8    3    4 1
     9    3   20 1
    10    3   21 1
    11    4    5 1
    12    4   22 1
    13    4   23 1
    14    5    6 1
    15    5   24 1
    16    5   25 1
    17    6    7 1
    18    7    8 1
    19    7   13 1
    20    7    9 1
    21    9   10 1
    22    9   26 1
    23    9   27 1
    24   10   11 1
    25   11   12 1
    26   11   28 1
    27   11   29 1
    28   12   13 1
    29   12   30 1
    30   12   31 1
    31   13   14 1
    32   13   15 1
    33   15   32 1
    34   15   33 1
    35   15   37 1
    36   16   34 1
    37   16   35 1
    38   16   36 1
@<TRIPOS>MOLECULE
ZINC20112075
   28    29     0     0     0
SMALL
USER_CHARGES
(1R,6R,7R,8R)-6-chloro-7-methylamino-2,3,5,6,7,8-hexahydro-1H-pyrrolizin-1-ol
@<TRIPOS>ATOM
      1 C1          2.2660    0.7565    0.7574 C.3       1 <0>        -0.0024
      2 N1          1.3546    1.6228   -0.0022 N.3       1 <0>        -0.6372
      3 C2         -0.0127    1.0858    0.0080 C.3       1 <0>         0.0690
      4 H1          0.1445   -0.0028   -0.0043 H         1 <0>         0.1220
      5 C3         -0.8036    1.6184    1.2337 C.3       1 <0>        -0.0674
      6 H2         -0.5573    2.6750    1.4152 H         1 <0>         0.1380
      7 C4         -2.2658    1.4902    0.7179 C.3       1 <0>        -0.0153
      8 N2         -2.1915    1.8966   -0.7038 N.4       1 <0>        -0.4034
      9 C5         -0.8219    1.6281   -1.1893 C.3       1 <0>         0.0417
     10 H3         -0.8588    0.9077   -2.0198 H         1 <0>         0.1598
     11 C6         -0.2074    2.9570   -1.6557 C.3       1 <0>         0.1194
     12 H4          0.4340    2.8687   -2.5450 H         1 <0>         0.1127
     13 C7         -1.4138    3.9035   -1.8290 C.3       1 <0>        -0.1762
     14 C8         -2.4541    3.3534   -0.8350 C.3       1 <0>         0.0010
     15 O1          0.6878    3.4669   -0.6654 O.3       1 <0>        -0.5742
     16 Cl1        -0.5278    0.5829    2.6838 Cl        1 <0>        -0.1025
     17 H5          3.2805    1.1811    0.7335 H         1 <0>         0.0796
     18 H6          2.2779   -0.2472    0.3075 H         1 <0>         0.0648
     19 H7          1.9221    0.6870    1.7999 H         1 <0>         0.0347
     20 H8          1.3427    2.6265    0.4477 H         1 <0>         0.3721
     21 H9         -2.6046    0.4498    0.8309 H         1 <0>         0.1464
     22 H10        -2.9201    2.1543    1.3017 H         1 <0>         0.1453
     23 H11        -1.1099    4.9328   -1.5878 H         1 <0>         0.1199
     24 H12        -1.7675    3.8600   -2.8697 H         1 <0>         0.1072
     25 H13        -3.4757    3.5093   -1.2118 H         1 <0>         0.1364
     26 H14        -2.3485    3.8351    0.1483 H         1 <0>         0.1273
     27 H15         1.2168    4.4157   -0.8384 H         1 <0>         0.4218
     28 H16        -2.9364    1.3326   -1.2844 H         1 <0>         0.4594
@<TRIPOS>BOND
     1    1    2 1
     2    1   17 1
     3    1   18 1
     4    1   19 1
     5    2    3 1
     6    2   20 1
     7    3    4 1
     8    3    9 1
     9    3    5 1
    10    5    6 1
    11    5    7 1
    12    5   16 1
    13    7    8 1
    14    7   21 1
    15    7   22 1
    16    8   14 1
    17    8    9 1
    18    8   28 1
    19    9   10 1
    20    9   11 1
    21   11   12 1
    22   11   13 1
    23   11   15 1
    24   13   14 1
    25   13   23 1
    26   13   24 1
    27   14   25 1
    28   14   26 1
    29   15   27 1
@<TRIPOS>MOLECULE
ZINC37230096
   28    29     0     0     0
SMALL
USER_CHARGES

@<TRIPOS>ATOM
      1 C1         -0.0178    1.4648    0.0101 C.3       1 <0>         0.0203
      2 N1          0.0021   -0.0041    0.0020 N.3       1 <0>        -0.6753
      3 C2         -1.3620   -0.5491    0.0121 C.3       1 <0>         0.0757
      4 H1         -2.0216    0.0912    0.5978 H         1 <0>         0.1302
      5 C3         -1.8926   -0.6932   -1.4260 C.3       1 <0>        -0.0785
      6 H2         -2.6178    0.0919   -1.6402 H         1 <0>         0.1471
      7 C4         -2.5701   -2.0712   -1.4827 C.3       1 <0>        -0.0099
      8 N2         -2.4429   -2.6906   -0.1564 N.4       1 <0>        -0.3923
      9 C5         -1.3633   -1.9831    0.5789 C.3       1 <0>         0.0382
     10 H3         -0.3973   -2.4707    0.4474 H         1 <0>         0.1669
     11 C6         -1.7965   -1.9247    2.0571 C.3       1 <0>         0.1049
     12 H4         -1.8580   -0.8893    2.3922 H         1 <0>         0.1030
     13 C7         -3.1934   -2.5851    2.0979 C.3       1 <0>        -0.1843
     14 C8         -3.6793   -2.4613    0.6298 C.3       1 <0>        -0.0057
     15 O1         -0.8772   -2.6547    2.8720 O.3       1 <0>        -0.5485
     16 Cl1        -0.5291   -0.6185   -2.6033 Cl        1 <0>        -0.1045
     17 H5          1.0047    1.8421    0.0024 H         1 <0>         0.0871
     18 H6         -0.5450    1.8259   -0.8730 H         1 <0>         0.0358
     19 H7         -0.5280    1.8163    0.9069 H         1 <0>         0.0745
     20 H8          0.5256   -0.3543   -0.7863 H         1 <0>         0.3609
     21 H9         -3.6238   -1.9543   -1.7358 H         1 <0>         0.1518
     22 H10        -2.0776   -2.6940   -2.2295 H         1 <0>         0.1466
     23 H11        -3.1165   -3.6322    2.3908 H         1 <0>         0.1106
     24 H12        -3.8567   -2.0428    2.7717 H         1 <0>         0.1230
     25 H13        -4.0761   -1.4637    0.4414 H         1 <0>         0.1356
     26 H14        -4.4259   -3.2228    0.4043 H         1 <0>         0.1435
     27 H15        -1.0990   -2.6531    3.8132 H         1 <0>         0.4038
     28 H16        -2.2480   -3.6772   -0.2387 H         1 <0>         0.4392
@<TRIPOS>BOND
     1    1    2 1
     2    1   17 1
     3    1   18 1
     4    1   19 1
     5    2    3 1
     6    2   20 1
     7    3    4 1
     8    3    9 1
     9    3    5 1
    10    5    6 1
    11    5    7 1
    12    5   16 1
    13    7    8 1
    14    7   21 1
    15    7   22 1
    16    8   14 1
    17    8    9 1
    18    8   28 1
    19    9   10 1
    20    9   11 1
    21   11   12 1
    22   11   13 1
    23   11   15 1
    24   13   14 1
    25   13   23 1
    26   13   24 1
    27   14   25 1
    28   14   26 1
    29   15   27 1
@<TRIPOS>MOLECULE
ZINC50228246
   36    38     0     0     0
SMALL
USER_CHARGES

@<TRIPOS>ATOM
      1 C1         -0.0191    1.5550    0.0106 C.3       1 <0>        -0.1243
      2 C2          1.4710    1.9661   -0.0014 C.3       1 <0>        -0.1246
      3 C3          2.2521    0.6167   -0.0161 C.3       1 <0>        -0.0811
      4 H1          3.2914    0.6642    0.3090 H         1 <0>         0.1069
      5 C4          1.2961   -0.2813    0.8458 C.3       1 <0>        -0.1241
      6 C5          0.0021   -0.0041    0.0020 C.3       1 <0>        -0.1057
      7 H2         -0.9095   -0.4948    0.3429 H         1 <0>         0.1047
      8 C6          0.5032   -0.3798   -1.4259 C.3       1 <0>        -0.1072
      9 C7          2.0106    0.0414   -1.4451 C.3       1 <0>        -0.1086
     10 H3          2.1986    0.8057   -2.1992 H         1 <0>         0.1038
     11 C8          2.8884   -1.1602   -1.6830 C.2       1 <0>         0.5444
     12 O1          3.6428   -1.5418   -0.8133 O.2       1 <0>        -0.5128
     13 N1          2.8351   -1.8109   -2.8621 N.am      1 <0>        -0.6257
     14 C9          1.9751   -1.4537   -3.9997 C.3       1 <0>         0.0966
     15 C10         2.2739   -2.4577   -5.1329 C.3       1 <0>        -0.1473
     16 C11         3.6910   -2.9767   -4.7727 C.3       1 <0>         0.0052
     17 H4          4.4600   -2.2887   -5.1241 H         1 <0>         0.1608
     18 C12         3.6343   -2.9948   -3.2270 C.3       1 <0>         0.0908
     19 N2          3.9101   -4.3260   -5.3106 N.4       1 <0>        -0.6269
     20 H5         -0.5076    1.9235    0.9126 H         1 <0>         0.0691
     21 H6         -0.5247    1.9331   -0.8779 H         1 <0>         0.0666
     22 H7          1.6979    2.5463   -0.8959 H         1 <0>         0.0659
     23 H8          1.7150    2.5367    0.8947 H         1 <0>         0.0725
     24 H9          1.5857   -1.3317    0.8170 H         1 <0>         0.0695
     25 H10         1.2034    0.0845    1.8684 H         1 <0>         0.0773
     26 H11         0.4035   -1.4522   -1.5936 H         1 <0>         0.0643
     27 H12        -0.0507    0.1770   -2.1817 H         1 <0>         0.0773
     28 H13         0.9270   -1.5243   -3.7087 H         1 <0>         0.0929
     29 H14         2.2021   -0.4409   -4.3324 H         1 <0>         0.0885
     30 H15         1.5511   -3.2736   -5.1259 H         1 <0>         0.1020
     31 H16         2.2813   -1.9561   -6.1006 H         1 <0>         0.1158
     32 H17         4.6381   -2.9184   -2.8091 H         1 <0>         0.1070
     33 H18         3.1455   -3.9045   -2.8782 H         1 <0>         0.0867
     34 H19         3.8420   -4.3021   -6.3170 H         1 <0>         0.4424
     35 H20         4.8275   -4.6498   -5.0431 H         1 <0>         0.4416
     36 H21         3.2112   -4.9530   -4.9410 H         1 <0>         0.4358
@<TRIPOS>BOND
     1    1    6 1
     2    1    2 1
     3    1   20 1
     4    1   21 1
     5    2    3 1
     6    2   22 1
     7    2   23 1
     8    3    4 1
     9    3    9 1
    10    3    5 1
    11    5    6 1
    12    5   24 1
    13    5   25 1
    14    6    7 1
    15    6    8 1
    16    8    9 1
    17    8   26 1
    18    8   27 1
    19    9   10 1
    20    9   11 1
    21   11   12 2
    22   11   13 am
    23   13   18 1
    24   13   14 1
    25   14   15 1
    26   14   28 1
    27   14   29 1
    28   15   16 1
    29   15   30 1
    30   15   31 1
    31   16   17 1
    32   16   18 1
    33   16   19 1
    34   18   32 1
    35   18   33 1
    36   19   34 1
    37   19   35 1
    38   19   36 1
@<TRIPOS>MOLECULE
ZINC55124902
   34    34     0     0     0
SMALL
USER_CHARGES

@<TRIPOS>ATOM
      1 C1         -0.5652    1.0869   -0.1457 C.3       1 <0>        -0.1633
      2 C2         -0.1905   -0.3850    0.0387 C.3       1 <0>        -0.0582
      3 H1          0.3178   -0.7454   -0.8556 H         1 <0>         0.0867
      4 C3         -1.4586   -1.2088    0.2715 C.3       1 <0>        -0.1613
      5 C4         -1.0839   -2.6807    0.4559 C.3       1 <0>         0.0271
      6 H2         -0.5756   -3.0411   -0.4384 H         1 <0>         0.1403
      7 C5         -0.1546   -2.8230    1.6630 C.3       1 <0>        -0.1451
      8 C6          1.1135   -1.9992    1.4303 C.3       1 <0>        -0.1112
      9 C7          0.7388   -0.5273    1.2458 C.3       1 <0>        -0.1177
     10 H3          1.6422    0.0595    1.0800 H         1 <0>         0.1118
     11 C8          0.0360   -0.0291    2.4823 C.2       1 <0>         0.5180
     12 O1         -1.1435    0.2496    2.4386 O.2       1 <0>        -0.5367
     13 N1          0.7183    0.1067    3.6367 N.am      1 <0>        -0.6144
     14 C9          0.0123    0.4779    4.8655 C.3       1 <0>         0.0778
     15 C10         2.1659   -0.1168    3.6626 C.3       1 <0>         0.0640
     16 N2         -2.3015   -3.4717    0.6794 N.4       1 <0>        -0.6358
     17 H4          0.3383    1.6737   -0.3115 H         1 <0>         0.0607
     18 H5         -1.2272    1.1882   -1.0057 H         1 <0>         0.0617
     19 H6         -1.0735    1.4472    0.7486 H         1 <0>         0.0796
     20 H7         -1.9669   -0.8485    1.1658 H         1 <0>         0.1256
     21 H8         -2.1206   -1.1075   -0.5885 H         1 <0>         0.0856
     22 H9         -0.6629   -2.4627    2.5574 H         1 <0>         0.0857
     23 H10         0.1123   -3.8716    1.7944 H         1 <0>         0.0925
     24 H11         1.7756   -2.1006    2.2902 H         1 <0>         0.0924
     25 H12         1.6218   -2.3596    0.5359 H         1 <0>         0.0911
     26 H13        -0.3200   -0.4237    5.3801 H         1 <0>         0.0578
     27 H14         0.6836    1.0402    5.5145 H         1 <0>         0.0761
     28 H15        -0.8521    1.0934    4.6161 H         1 <0>         0.0813
     29 H16         2.5249   -0.2912    2.6483 H         1 <0>         0.0824
     30 H17         2.6617    0.7608    4.0776 H         1 <0>         0.0732
     31 H18         2.3883   -0.9863    4.2812 H         1 <0>         0.0677
     32 H19        -2.9143   -3.3778   -0.1167 H         1 <0>         0.4365
     33 H20        -2.0544   -4.4423    0.8010 H         1 <0>         0.4343
     34 H21        -2.7720   -3.1381    1.5073 H         1 <0>         0.4339
@<TRIPOS>BOND
     1    1    2 1
     2    1   17 1
     3    1   18 1
     4    1   19 1
     5    2    3 1
     6    2    9 1
     7    2    4 1
     8    4    5 1
     9    4   20 1
    10    4   21 1
    11    5    6 1
    12    5    7 1
    13    5   16 1
    14    7    8 1
    15    7   22 1
    16    7   23 1
    17    8    9 1
    18    8   24 1
    19    8   25 1
    20    9   10 1
    21    9   11 1
    22   11   12 2
    23   11   13 am
    24   13   14 1
    25   13   15 1
    26   14   26 1
    27   14   27 1
    28   14   28 1
    29   15   29 1
    30   15   30 1
    31   15   31 1
    32   16   32 1
    33   16   33 1
    34   16   34 1
@<TRIPOS>MOLECULE
ZINC61917129
   37    38     0     0     0
SMALL
USER_CHARGES

@<TRIPOS>ATOM
      1 C1         -0.7701    2.0288    0.9173 C.3       1 <0>        -0.1573
      2 C2         -0.5409    0.5246    0.7566 C.3       1 <0>         0.0842
      3 H1          0.0762    0.3574   -0.1262 H         1 <0>         0.0573
      4 C3         -1.9039   -0.1645    0.5461 C.3       1 <0>         0.0406
      5 N1         -1.8324   -1.6257    0.8024 N.3       1 <0>        -0.5622
      6 C4         -0.6444   -2.2577    0.2880 C.3       1 <0>         0.0224
      7 C5          0.4104   -2.2886    1.4098 C.3       1 <0>        -0.1599
      8 C6          1.0864   -1.0003    1.5630 C.3       1 <0>         0.0531
      9 O1          0.1452    0.0514    1.8813 O.3       1 <0>        -0.3547
     10 C7         -3.0417   -2.3049    0.3185 C.3       1 <0>         0.0605
     11 H2         -2.9941   -2.4255   -0.7637 H         1 <0>         0.0840
     12 C8         -4.2947   -1.4922    0.7050 C.3       1 <0>        -0.1288
     13 C9         -5.3535   -2.5683    1.0511 C.3       1 <0>        -0.1222
     14 C10        -4.5155   -3.6528    1.7727 C.3       1 <0>        -0.1404
     15 C11        -3.1814   -3.6791    0.9965 C.3       1 <0>         0.0316
     16 H3         -3.2025   -4.4667    0.2432 H         1 <0>         0.1426
     17 N2         -2.0635   -3.8988    1.9238 N.4       1 <0>        -0.6332
     18 H4          0.1896    2.5319    1.0358 H         1 <0>         0.0713
     19 H5         -1.2764    2.4157    0.0330 H         1 <0>         0.0721
     20 H6         -1.3867    2.2103    1.7977 H         1 <0>         0.0690
     21 H7         -2.6339    0.2791    1.2232 H         1 <0>         0.0962
     22 H8         -2.2295   -0.0001   -0.4811 H         1 <0>         0.0589
     23 H9         -0.8763   -3.2753   -0.0265 H         1 <0>         0.0719
     24 H10        -0.2629   -1.6884   -0.5596 H         1 <0>         0.0735
     25 H11        -0.0789   -2.5459    2.3492 H         1 <0>         0.0701
     26 H12         1.1523   -3.0526    1.1776 H         1 <0>         0.0933
     27 H13         1.8213   -1.0761    2.3643 H         1 <0>         0.1014
     28 H14         1.5984   -0.7533    0.6330 H         1 <0>         0.0601
     29 H15        -4.0900   -0.8653    1.5729 H         1 <0>         0.0918
     30 H16        -4.6293   -0.8842   -0.1355 H         1 <0>         0.0868
     31 H17        -6.1144   -2.1614    1.7172 H         1 <0>         0.0922
     32 H18        -5.8067   -2.9699    0.1448 H         1 <0>         0.0839
     33 H19        -4.3465   -3.3748    2.8131 H         1 <0>         0.0915
     34 H20        -5.0113   -4.6216    1.7114 H         1 <0>         0.1002
     35 H21        -1.9706   -3.1004    2.5337 H         1 <0>         0.4419
     36 H22        -2.2414   -4.7246    2.4755 H         1 <0>         0.4288
     37 H23        -1.2105   -4.0222    1.3990 H         1 <0>         0.4275
@<TRIPOS>BOND
     1    1    2 1
     2    1   18 1
     3    1   19 1
     4    1   20 1
     5    2    3 1
     6    2    9 1
     7    2    4 1
     8    4    5 1
     9    4   21 1
    10    4   22 1
    11    5    6 1
    12    5   10 1
    13    6    7 1
    14    6   23 1
    15    6   24 1
    16    7    8 1
    17    7   25 1
    18    7   26 1
    19    8    9 1
    20    8   27 1
    21    8   28 1
    22   10   11 1
    23   10   15 1
    24   10   12 1
    25   12   13 1
    26   12   29 1
    27   12   30 1
    28   13   14 1
    29   13   31 1
    30   13   32 1
    31   14   15 1
    32   14   33 1
    33   14   34 1
    34   15   16 1
    35   15   17 1
    36   17   35 1
    37   17   36 1
    38   17   37 1
@<TRIPOS>MOLECULE
ZINC26896898
   25    25     0     0     0
SMALL
USER_CHARGES
methyl 4-aminotetrahydrothiopyran-4-carboxylate
@<TRIPOS>ATOM
      1 C1          2.3672    1.1168   -0.0145 C.3       1 <0>         0.0312
      2 O1          1.1389    1.8910    0.0013 O.3       1 <0>        -0.3652
      3 C2         -0.0143    1.2041    0.0087 C.2       1 <0>         0.4459
      4 O2          0.0021   -0.0041    0.0020 O.2       1 <0>        -0.4389
      5 C3         -1.3295    1.9397    0.0189 C.3       1 <0>         0.0916
      6 C4         -1.6835    2.3153    1.4547 C.3       1 <0>        -0.1462
      7 C5         -2.8530    3.3041    1.4624 C.3       1 <0>        -0.1160
      8 S1         -4.3067    2.4928    0.7313 S.3       1 <0>        -0.1945
      9 C6         -3.6742    1.8683   -0.8549 C.3       1 <0>        -0.1171
     10 C7         -2.4080    1.0485   -0.5898 C.3       1 <0>        -0.1380
     11 N1         -1.2046    3.1640   -0.7833 N.4       1 <0>        -0.6843
     12 H1          3.2304    1.7987   -0.0192 H         1 <0>         0.1220
     13 H2          2.3923    0.4874   -0.9163 H         1 <0>         0.0780
     14 H3          2.4094    0.4779    0.8799 H         1 <0>         0.0793
     15 H4         -1.9703    1.4103    2.0104 H         1 <0>         0.1336
     16 H5         -0.8117    2.7811    1.9374 H         1 <0>         0.1157
     17 H6         -3.0733    3.6034    2.4977 H         1 <0>         0.1471
     18 H7         -2.5853    4.1933    0.8728 H         1 <0>         0.0855
     19 H8         -4.4373    1.2342   -1.3298 H         1 <0>         0.1471
     20 H9         -3.4391    2.7160   -1.5153 H         1 <0>         0.0847
     21 H10        -2.0434    0.6275   -1.5384 H         1 <0>         0.1129
     22 H11        -2.6446    0.2311    0.1072 H         1 <0>         0.1366
     23 H12        -2.1626    3.7046   -0.7788 H         1 <0>         0.4563
     24 H13        -0.9377    2.8993   -1.8171 H         1 <0>         0.4639
     25 H14        -0.4200    3.8048   -0.3546 H         1 <0>         0.4689
@<TRIPOS>BOND
     1    1    2 1
     2    1   12 1
     3    1   13 1
     4    1   14 1
     5    2    3 1
     6    3    4 2
     7    3    5 1
     8    5   10 1
     9    5    6 1
    10    5   11 1
    11    6    7 1
    12    6   15 1
    13    6   16 1
    14    7    8 1
    15    7   17 1
    16    7   18 1
    17    8    9 1
    18    9   10 1
    19    9   19 1
    20    9   20 1
    21   10   21 1
    22   10   22 1
    23   11   23 1
    24   11   24 1
    25   11   25 1
@<TRIPOS>MOLECULE
ZINC37912099
   38    39     0     0     0
SMALL
USER_CHARGES

@<TRIPOS>ATOM
      1 C1         -0.0187    1.5258    0.0104 C.3       1 <0>        -0.1612
      2 C2          0.0021   -0.0041    0.0020 C.3       1 <0>         0.1294
      3 H1          0.5001   -0.3629   -0.8987 H         1 <0>         0.0801
      4 C3         -1.4408   -0.5488    0.0564 C.3       1 <0>        -0.1312
      5 C4         -1.3107   -1.7851    0.9849 C.3       1 <0>        -0.1371
      6 C5         -0.2414   -1.3030    1.9966 C.3       1 <0>         0.0935
      7 N1          0.7049   -0.5012    1.1938 N.am      1 <0>        -0.6104
      8 C6          1.9957   -0.2640    1.5005 C.2       1 <0>         0.5311
      9 O1          2.6800    0.4123    0.7621 O.2       1 <0>        -0.5376
     10 C7          2.5887   -0.8391    2.7609 C.3       1 <0>        -0.1156
     11 C8          1.8180   -0.3129    3.9734 C.3       1 <0>        -0.1157
     12 C9          1.9135    1.2135    4.0152 C.3       1 <0>        -0.1458
     13 C10         3.3817    1.6299    4.1242 C.3       1 <0>         0.0260
     14 C11         4.1524    1.1037    2.9118 C.3       1 <0>        -0.1574
     15 C12         4.0569   -0.4228    2.8700 C.3       1 <0>        -0.0936
     16 N2          3.4734    3.0955    4.1644 N.4       1 <0>        -0.6362
     17 H2          1.0039    1.9031    0.0027 H         1 <0>         0.0656
     18 H3         -0.5459    1.8868   -0.8726 H         1 <0>         0.0706
     19 H4         -0.5289    1.8773    0.9072 H         1 <0>         0.0532
     20 H5         -2.1157    0.1894    0.4894 H         1 <0>         0.0804
     21 H6         -1.7784   -0.8461   -0.9365 H         1 <0>         0.0878
     22 H7         -2.2549   -1.9982    1.4862 H         1 <0>         0.0906
     23 H8         -0.9596   -2.6552    0.4301 H         1 <0>         0.0810
     24 H9         -0.7010   -0.6875    2.7700 H         1 <0>         0.0743
     25 H10         0.2700   -2.1557    2.4433 H         1 <0>         0.0807
     26 H11         2.5207   -1.9266    2.7311 H         1 <0>         0.1122
     27 H12         0.7720   -0.6095    3.8957 H         1 <0>         0.0943
     28 H13         2.2469   -0.7289    4.8850 H         1 <0>         0.0902
     29 H14         1.4846    1.6295    3.1036 H         1 <0>         0.0852
     30 H15         1.3645    1.5884    4.8790 H         1 <0>         0.0926
     31 H16         3.8106    1.2139    5.0359 H         1 <0>         0.1417
     32 H17         3.7235    1.5197    2.0001 H         1 <0>         0.1152
     33 H18         5.1984    1.4003    2.9894 H         1 <0>         0.0874
     34 H19         4.4858   -0.8388    3.7816 H         1 <0>         0.0824
     35 H20         4.6060   -0.7976    2.0062 H         1 <0>         0.0918
     36 H21         2.9652    3.4425    4.9640 H         1 <0>         0.4345
     37 H22         4.4417    3.3700    4.2363 H         1 <0>         0.4368
     38 H23         3.0764    3.4805    3.3205 H         1 <0>         0.4334
@<TRIPOS>BOND
     1    1    2 1
     2    1   17 1
     3    1   18 1
     4    1   19 1
     5    2    3 1
     6    2    7 1
     7    2    4 1
     8    4    5 1
     9    4   20 1
    10    4   21 1
    11    5    6 1
    12    5   22 1
    13    5   23 1
    14    6    7 1
    15    6   24 1
    16    6   25 1
    17    7    8 am
    18    8    9 2
    19    8   10 1
    20   10   15 1
    21   10   11 1
    22   10   26 1
    23   11   12 1
    24   11   27 1
    25   11   28 1
    26   12   13 1
    27   12   29 1
    28   12   30 1
    29   13   14 1
    30   13   16 1
    31   13   31 1
    32   14   15 1
    33   14   32 1
    34   14   33 1
    35   15   34 1
    36   15   35 1
    37   16   36 1
    38   16   37 1
    39   16   38 1
@<TRIPOS>MOLECULE
ZINC50326916
   26    27     0     0     0
SMALL
USER_CHARGES

@<TRIPOS>ATOM
      1 C1         -0.0167    1.3781    0.0096 C.2       1 <0>        -0.1598
      2 C2          1.1597    2.0514    0.0020 C.2       1 <0>        -0.1481
      3 S1          2.3478    0.7191   -0.0165 S.3       1 <0>         0.1303
      4 C3          1.1962   -0.6452   -0.0128 C.2       1 <0>        -0.1986
      5 C4          0.0021   -0.0041    0.0020 C.2       1 <0>        -0.1555
      6 C5         -1.2859   -0.7864    0.0106 C.3       1 <0>         0.1621
      7 H1         -2.1012   -0.1478   -0.3294 H         1 <0>         0.1494
      8 C6         -1.5733   -1.2656    1.4102 C.2       1 <0>        -0.2188
      9 C7         -2.5958   -0.8838    2.1259 C.2       1 <0>        -0.0664
     10 C8         -2.5908   -1.5514    3.4815 C.3       1 <0>        -0.1161
     11 C9         -1.6120   -2.7391    3.3310 C.3       1 <0>        -0.1250
     12 C10        -0.7190   -2.2560    2.1668 C.3       1 <0>        -0.0900
     13 N1         -1.1625   -1.9426   -0.8871 N.4       1 <0>        -0.6335
     14 H2         -0.9545    1.9134    0.0259 H         1 <0>         0.1443
     15 H3          1.3332    3.1174    0.0058 H         1 <0>         0.1983
     16 H4          1.3986   -1.7060   -0.0210 H         1 <0>         0.1872
     17 H5         -3.3467   -0.1825    1.7932 H         1 <0>         0.1376
     18 H6         -2.2338   -0.8594    4.2442 H         1 <0>         0.0938
     19 H7         -3.5889   -1.9112    3.7312 H         1 <0>         0.0888
     20 H8         -1.0292   -2.8834    4.2407 H         1 <0>         0.0850
     21 H9         -2.1428   -3.6515    3.0595 H         1 <0>         0.0781
     22 H10        -0.4470   -3.0925    1.5231 H         1 <0>         0.0634
     23 H11         0.1750   -1.7679    2.5547 H         1 <0>         0.0863
     24 H12        -0.4078   -2.5338   -0.5724 H         1 <0>         0.4295
     25 H13        -2.0249   -2.4664   -0.8814 H         1 <0>         0.4392
     26 H14        -0.9701   -1.6218   -1.8242 H         1 <0>         0.4385
@<TRIPOS>BOND
     1    1    5 1
     2    1    2 2
     3    1   14 1
     4    2    3 1
     5    2   15 1
     6    3    4 1
     7    4    5 2
     8    4   16 1
     9    5    6 1
    10    6    7 1
    11    6    8 1
    12    6   13 1
    13    8   12 1
    14    8    9 2
    15    9   10 1
    16    9   17 1
    17   10   11 1
    18   10   18 1
    19   10   19 1
    20   11   12 1
    21   11   20 1
    22   11   21 1
    23   12   22 1
    24   12   23 1
    25   13   24 1
    26   13   25 1
    27   13   26 1
@<TRIPOS>MOLECULE
ZINC55091633
   38    39     0     0     0
SMALL
USER_CHARGES

@<TRIPOS>ATOM
      1 C1          0.0261    1.4078    0.3223 C.3       1 <0>        -0.1699
      2 C2          0.0443   -0.1160    0.1868 C.3       1 <0>        -0.1257
      3 H1         -0.9782   -0.4937    0.1947 H         1 <0>         0.1240
      4 C3          0.7207   -0.5029   -1.1299 C.3       1 <0>        -0.0956
      5 C4          0.7388   -2.0268   -1.2654 C.3       1 <0>        -0.1156
      6 H2          1.2207   -2.3025   -2.2035 H         1 <0>         0.1034
      7 C5          1.5157   -2.6337   -0.0954 C.3       1 <0>        -0.0996
      8 C6          0.8393   -2.2468    1.2213 C.3       1 <0>        -0.1571
      9 C7          0.8212   -0.7229    1.3568 C.3       1 <0>         0.0386
     10 H3          1.8436   -0.3453    1.3489 H         1 <0>         0.1368
     11 N1          0.1717   -0.3514    2.6210 N.4       1 <0>        -0.6362
     12 C8         -0.6748   -2.5489   -1.2545 C.2       1 <0>         0.5366
     13 O1         -1.3881   -2.3479   -0.2944 O.2       1 <0>        -0.5506
     14 N2         -1.1464   -3.2393   -2.3116 N.am      1 <0>        -0.6111
     15 C9         -0.3628   -3.6488   -3.4863 C.3       1 <0>         0.0932
     16 C10        -1.3225   -4.3882   -4.4422 C.3       1 <0>        -0.1349
     17 C11        -2.7166   -3.8603   -4.0120 C.3       1 <0>        -0.1361
     18 C12        -2.5320   -3.7144   -2.4786 C.3       1 <0>         0.1015
     19 H4          1.0486    1.7855    0.3144 H         1 <0>         0.0706
     20 H5         -0.5273    1.8402   -0.5112 H         1 <0>         0.0824
     21 H6         -0.4557    1.6835    1.2604 H         1 <0>         0.0526
     22 H7          0.1672   -0.0706   -1.9635 H         1 <0>         0.0858
     23 H8          1.7431   -0.1253   -1.1378 H         1 <0>         0.0879
     24 H9          1.5286   -3.7193   -0.1920 H         1 <0>         0.0858
     25 H10         2.5381   -2.2560   -0.1033 H         1 <0>         0.0876
     26 H11        -0.1832   -2.6244    1.2292 H         1 <0>         0.1152
     27 H12         1.3928   -2.6791    2.0549 H         1 <0>         0.0855
     28 H13        -0.7747   -0.7010    2.6284 H         1 <0>         0.4356
     29 H14         0.6841   -0.7517    3.3927 H         1 <0>         0.4340
     30 H15         0.0494   -2.7697   -3.9816 H         1 <0>         0.0742
     31 H16         0.4427   -4.3162   -3.1802 H         1 <0>         0.0742
     32 H17        -1.1133   -4.1244   -5.4789 H         1 <0>         0.0893
     33 H18        -1.2567   -5.4665   -4.2967 H         1 <0>         0.0818
     34 H19        -2.9302   -2.8976   -4.4765 H         1 <0>         0.0791
     35 H20        -3.4971   -4.5854   -4.2426 H         1 <0>         0.0909
     36 H21        -2.6650   -4.6771   -1.9849 H         1 <0>         0.0734
     37 H22        -3.2346   -2.9825   -2.0803 H         1 <0>         0.0805
     38 H23         0.1598    0.6535    2.7104 H         1 <0>         0.4320
@<TRIPOS>BOND
     1    1    2 1
     2    1   19 1
     3    1   20 1
     4    1   21 1
     5    2    3 1
     6    2    9 1
     7    2    4 1
     8    4    5 1
     9    4   22 1
    10    4   23 1
    11    5    6 1
    12    5    7 1
    13    5   12 1
    14    7    8 1
    15    7   24 1
    16    7   25 1
    17    8    9 1
    18    8   26 1
    19    8   27 1
    20    9   10 1
    21    9   11 1
    22   11   28 1
    23   11   29 1
    24   11   38 1
    25   12   13 2
    26   12   14 am
    27   14   18 1
    28   14   15 1
    29   15   16 1
    30   15   30 1
    31   15   31 1
    32   16   17 1
    33   16   32 1
    34   16   33 1
    35   17   18 1
    36   17   34 1
    37   17   35 1
    38   18   36 1
    39   18   37 1
@<TRIPOS>MOLECULE
ZINC62356935
   31    32     0     0     0
SMALL
USER_CHARGES

@<TRIPOS>ATOM
      1 C1         -0.0221    1.7814    0.0118 C.2       1 <0>        -0.2814
      2 C2          1.3087    2.0497    0.0006 C.2       1 <0>         0.0429
      3 N1          2.1264    1.0160   -0.0128 N.2       1 <0>        -0.5008
      4 C3          1.6722   -0.2124   -0.0150 C.2       1 <0>         0.0520
      5 S1          0.0021   -0.0041    0.0020 S.3       1 <0>         0.2075
      6 C4          1.8272    3.4647    0.0027 C.3       1 <0>         0.1641
      7 H1          2.3512    3.6611   -0.9327 H         1 <0>         0.1571
      8 C5          2.7763    3.6501    1.1586 C.2       1 <0>        -0.1940
      9 C6          4.0261    3.9028    0.9316 C.2       1 <0>        -0.0530
     10 C7          4.9899    4.0923    2.0834 C.3       1 <0>        -0.1046
     11 C8          4.6925    5.4356    2.7534 C.3       1 <0>        -0.1137
     12 C9          3.5939    5.2877    3.7911 C.3       1 <0>        -0.1274
     13 C10         2.2399    4.9389    3.1988 C.3       1 <0>        -0.1175
     14 C11         2.2623    3.5462    2.5786 C.3       1 <0>        -0.0864
     15 N2          0.7015    4.3986    0.1388 N.4       1 <0>        -0.6332
     16 H2         -0.8624    2.4597    0.0273 H         1 <0>         0.1958
     17 H3          2.2332   -1.1352   -0.0259 H         1 <0>         0.2316
     18 H4          4.3826    3.9792   -0.0850 H         1 <0>         0.1215
     19 H5          4.8597    3.2864    2.8057 H         1 <0>         0.0839
     20 H6          6.0134    4.0891    1.7084 H         1 <0>         0.0820
     21 H7          5.5971    5.8028    3.2382 H         1 <0>         0.0762
     22 H8          4.3762    6.1523    1.9955 H         1 <0>         0.0641
     23 H9          3.8800    4.5039    4.4924 H         1 <0>         0.0666
     24 H10         3.5035    6.2257    4.3391 H         1 <0>         0.0686
     25 H11         1.4855    4.9701    3.9850 H         1 <0>         0.0749
     26 H12         1.9860    5.6682    2.4297 H         1 <0>         0.0549
     27 H13         1.2528    3.1353    2.5732 H         1 <0>         0.0628
     28 H14         2.9201    2.8996    3.1594 H         1 <0>         0.0912
     29 H15         0.2165    4.2168    1.0047 H         1 <0>         0.4337
     30 H16         1.0487    5.3459    0.1402 H         1 <0>         0.4436
     31 H17         0.0661    4.2744   -0.6351 H         1 <0>         0.4368
@<TRIPOS>BOND
     1    1    5 1
     2    1    2 2
     3    1   16 1
     4    2    3 1
     5    2    6 1
     6    3    4 2
     7    4    5 1
     8    4   17 1
     9    6    7 1
    10    6    8 1
    11    6   15 1
    12    8   14 1
    13    8    9 2
    14    9   10 1
    15    9   18 1
    16   10   11 1
    17   10   19 1
    18   10   20 1
    19   11   12 1
    20   11   21 1
    21   11   22 1
    22   12   13 1
    23   12   23 1
    24   12   24 1
    25   13   14 1
    26   13   25 1
    27   13   26 1
    28   14   27 1
    29   14   28 1
    30   15   29 1
    31   15   30 1
    32   15   31 1
@<TRIPOS>MOLECULE
ZINC35584495
   40    42     0     0     0
SMALL
USER_CHARGES

@<TRIPOS>ATOM
      1 C1         -0.0187    1.5258    0.0104 C.3       1 <0>        -0.1562
      2 C2          0.0021   -0.0041    0.0020 C.3       1 <0>        -0.1495
      3 C3         -1.4333   -0.5336    0.0129 C.3       1 <0>        -0.0131
      4 N1         -1.4134   -2.0025    0.0048 N.4       1 <0>        -0.5077
      5 C4         -2.7915   -2.5110    0.0152 C.3       1 <0>         0.1415
      6 H1         -3.3284   -2.0882    0.8645 H         1 <0>         0.1564
      7 C5         -3.4829   -2.1146   -1.2638 C.ar      1 <0>        -0.1380
      8 C6         -2.7997   -2.1688   -2.4643 C.ar      1 <0>        -0.1203
      9 C7         -3.4338   -1.8052   -3.6375 C.ar      1 <0>        -0.1028
     10 C8         -4.7514   -1.3878   -3.6104 C.ar      1 <0>        -0.0900
     11 C9         -5.4349   -1.3345   -2.4100 C.ar      1 <0>        -0.1036
     12 C10        -4.8021   -1.7022   -1.2373 C.ar      1 <0>        -0.0850
     13 C11        -2.7718   -4.0134    0.1308 C.ar      1 <0>        -0.1312
     14 C12        -1.8238   -4.7452   -0.5631 C.ar      1 <0>        -0.0979
     15 C13        -1.7993   -6.1226   -0.4623 C.ar      1 <0>        -0.0855
     16 C14        -2.7271   -6.7719    0.3369 C.ar      1 <0>         0.1010
     17 C15        -3.6824   -6.0354    1.0369 C.ar      1 <0>         0.0507
     18 C16        -3.6962   -4.6533    0.9332 C.ar      1 <0>        -0.0430
     19 O1         -4.4467   -6.9186    1.7251 O.3       1 <0>        -0.2289
     20 C17        -4.0081   -8.1638    1.4827 C.2       1 <0>         0.6410
     21 O2         -4.4843   -9.1797    1.9516 O.2       1 <0>        -0.4572
     22 N2         -2.9585   -8.1137    0.6388 N.am      1 <0>        -0.6456
     23 H2         -2.4557   -8.8722    0.3030 H         1 <0>         0.4515
     24 H3          1.0039    1.9031    0.0027 H         1 <0>         0.0780
     25 H4         -0.5459    1.8868   -0.8726 H         1 <0>         0.0672
     26 H5         -0.5289    1.8773    0.9072 H         1 <0>         0.0678
     27 H6          0.5123   -0.3556   -0.8948 H         1 <0>         0.0856
     28 H7          0.5293   -0.3651    0.8851 H         1 <0>         0.0875
     29 H8         -1.9435   -0.1821    0.9097 H         1 <0>         0.1351
     30 H9         -1.9605   -0.1726   -0.8702 H         1 <0>         0.1347
     31 H10        -0.9411   -2.3279   -0.8254 H         1 <0>         0.4218
     32 H11        -1.7703   -2.4948   -2.4855 H         1 <0>         0.1173
     33 H12        -2.8998   -1.8468   -4.5753 H         1 <0>         0.1359
     34 H13        -5.2466   -1.1031   -4.5269 H         1 <0>         0.1363
     35 H14        -6.4642   -1.0081   -2.3888 H         1 <0>         0.1380
     36 H15        -5.3372   -1.6641   -0.3000 H         1 <0>         0.1350
     37 H16        -1.1015   -4.2378   -1.1855 H         1 <0>         0.1346
     38 H17        -1.0594   -6.6921   -1.0050 H         1 <0>         0.1515
     39 H18        -4.4313   -4.0776    1.4760 H         1 <0>         0.1542
     40 H19        -0.9254   -2.3367    0.8222 H         1 <0>         0.4332
@<TRIPOS>BOND
     1    1    2 1
     2    1   24 1
     3    1   25 1
     4    1   26 1
     5    2    3 1
     6    2   27 1
     7    2   28 1
     8    3    4 1
     9    3   29 1
    10    3   30 1
    11    4    5 1
    12    4   31 1
    13    4   40 1
    14    5    6 1
    15    5    7 1
    16    5   13 1
    17    7   12 ar
    18    7    8 ar
    19    8    9 ar
    20    8   32 1
    21    9   10 ar
    22    9   33 1
    23   10   11 ar
    24   10   34 1
    25   11   12 ar
    26   11   35 1
    27   12   36 1
    28   13   18 ar
    29   13   14 ar
    30   14   15 ar
    31   14   37 1
    32   15   16 ar
    33   15   38 1
    34   16   22 1
    35   16   17 ar
    36   17   18 ar
    37   17   19 1
    38   18   39 1
    39   19   20 1
    40   20   21 2
    41   20   22 am
    42   22   23 1
@<TRIPOS>MOLECULE
ZINC38111096
   44    46     0     0     0
SMALL
USER_CHARGES

@<TRIPOS>ATOM
      1 C1         -0.4124    1.8890   -0.9540 C.3       1 <0>        -0.1766
      2 C2         -0.1851    0.4593   -0.4587 C.3       1 <0>         0.1249
      3 C3          0.3458    0.4948    0.9758 C.3       1 <0>         0.0449
      4 O1          0.4587   -0.8394    1.4750 O.3       1 <0>        -0.5672
      5 C4         -1.4879   -0.2974   -0.4935 C.ar      1 <0>        -0.1053
      6 C5         -1.6023   -1.4386   -1.2656 C.ar      1 <0>        -0.1180
      7 C6         -2.7951   -2.1364   -1.3004 C.ar      1 <0>        -0.0837
      8 C7         -3.8797   -1.6929   -0.5613 C.ar      1 <0>         0.0576
      9 C8         -3.7645   -0.5433    0.2164 C.ar      1 <0>         0.0546
     10 C9         -2.5642    0.1478    0.2510 C.ar      1 <0>        -0.0767
     11 O2         -4.9570   -0.3180    0.8413 O.3       1 <0>        -0.3001
     12 C10        -5.9232   -1.1064    0.1214 C.3       1 <0>         0.2115
     13 O3         -5.1443   -2.1879   -0.4236 O.3       1 <0>        -0.2991
     14 N1          0.7932   -0.2098   -1.3265 N.4       1 <0>        -0.5031
     15 C11         2.0602    0.5330   -1.2999 C.3       1 <0>         0.0148
     16 C12         2.7940    0.3377   -2.6281 C.3       1 <0>        -0.1396
     17 C13         4.1137    1.1114   -2.6003 C.3       1 <0>        -0.1166
     18 C14         4.9852    0.5922   -1.4551 C.3       1 <0>        -0.1320
     19 C15         4.2515    0.7875   -0.1268 C.3       1 <0>        -0.1181
     20 C16         2.9318    0.0138   -0.1546 C.3       1 <0>        -0.1531
     21 H1          0.4964    2.4728   -0.8080 H         1 <0>         0.0910
     22 H2         -0.6659    1.8703   -2.0139 H         1 <0>         0.0937
     23 H3         -1.2295    2.3423   -0.3928 H         1 <0>         0.1110
     24 H4          1.3259    0.9717    0.9887 H         1 <0>         0.0915
     25 H5         -0.3420    1.0608    1.6039 H         1 <0>         0.0925
     26 H6          0.7903   -0.8932    2.3818 H         1 <0>         0.4063
     27 H7         -0.7581   -1.7854   -1.8430 H         1 <0>         0.1262
     28 H8         -2.8816   -3.0276   -1.9044 H         1 <0>         0.1489
     29 H9         -2.4706    1.0370    0.8567 H         1 <0>         0.1434
     30 H10        -6.6872   -1.4880    0.7988 H         1 <0>         0.1439
     31 H11        -6.3767   -0.5203   -0.6778 H         1 <0>         0.0964
     32 H12         0.9478   -1.1506   -0.9962 H         1 <0>         0.4337
     33 H13         1.8567    1.5933   -1.1497 H         1 <0>         0.1429
     34 H14         2.9975   -0.7225   -2.7783 H         1 <0>         0.0879
     35 H15         2.1731    0.7076   -3.4440 H         1 <0>         0.0880
     36 H16         4.6364    0.9723   -3.5466 H         1 <0>         0.0855
     37 H17         3.9101    2.1717   -2.4501 H         1 <0>         0.0745
     38 H18         5.1888   -0.4681   -1.6052 H         1 <0>         0.0708
     39 H19         5.9254    1.1434   -1.4352 H         1 <0>         0.0794
     40 H20         4.8724    0.4176    0.6891 H         1 <0>         0.0847
     41 H21         4.0479    1.8477    0.0234 H         1 <0>         0.0731
     42 H22         2.4090    0.1529    0.7917 H         1 <0>         0.1000
     43 H23         3.1353   -1.0465   -0.3048 H         1 <0>         0.0897
     44 H24         0.4402   -0.2389   -2.2713 H         1 <0>         0.4261
@<TRIPOS>BOND
     1    1    2 1
     2    1   21 1
     3    1   22 1
     4    1   23 1
     5    2    3 1
     6    2    5 1
     7    2   14 1
     8    3    4 1
     9    3   24 1
    10    3   25 1
    11    4   26 1
    12    5   10 ar
    13    5    6 ar
    14    6    7 ar
    15    6   27 1
    16    7    8 ar
    17    7   28 1
    18    8   13 1
    19    8    9 ar
    20    9   10 ar
    21    9   11 1
    22   10   29 1
    23   11   12 1
    24   12   13 1
    25   12   30 1
    26   12   31 1
    27   14   15 1
    28   14   32 1
    29   14   44 1
    30   15   20 1
    31   15   16 1
    32   15   33 1
    33   16   17 1
    34   16   34 1
    35   16   35 1
    36   17   18 1
    37   17   36 1
    38   17   37 1
    39   18   19 1
    40   18   38 1
    41   18   39 1
    42   19   20 1
    43   19   40 1
    44   19   41 1
    45   20   42 1
    46   20   43 1
@<TRIPOS>MOLECULE
ZINC49043966
   49    51     0     0     0
SMALL
USER_CHARGES

@<TRIPOS>ATOM
      1 C1         -0.0187    1.5258    0.0104 C.3       1 <0>        -0.1243
      2 C2          1.4167    2.0553   -0.0004 C.3       1 <0>        -0.1243
      3 C3          2.1328    1.5619   -1.2592 C.3       1 <0>        -0.1040
      4 C4          2.1536    0.0321   -1.2676 C.3       1 <0>        -0.0763
      5 C5          0.7182   -0.4975   -1.2568 C.3       1 <0>        -0.1468
      6 C6          0.0021   -0.0041    0.0020 C.3       1 <0>        -0.1210
      7 C7          2.8697   -0.4613   -2.5264 C.3       1 <0>        -0.6208
      8 S1          3.0251   -2.2676   -2.4650 S.o2      1 <0>         2.6003
      9 O1          3.9186   -2.6470   -1.4272 O.2       1 <0>        -0.9491
     10 O2          1.7443   -2.8731   -2.5755 O.2       1 <0>        -0.9371
     11 N1          3.8076   -2.6754   -3.8663 N.pl3     1 <0>        -1.1167
     12 C8          5.1861   -2.2331   -4.0909 C.3       1 <0>         0.1447
     13 H1          5.3800   -1.3332   -3.5072 H         1 <0>         0.0989
     14 C9          6.1550   -3.3393   -3.6641 C.3       1 <0>        -0.1716
     15 C10         7.5922   -2.8910   -3.9351 C.3       1 <0>        -0.0046
     16 N2          7.7742   -2.6584   -5.3741 N.4       1 <0>        -0.4862
     17 C11         6.8639   -1.6013   -5.8217 C.3       1 <0>         0.0151
     18 C12         5.3922   -1.9329   -5.5797 C.3       1 <0>        -0.1296
     19 C13         7.2601   -0.2028   -5.3295 C.3       1 <0>        -0.1377
     20 C14         8.1064   -0.0813   -6.6085 C.3       1 <0>        -0.1567
     21 C15         7.1517   -1.1060   -7.2451 C.3       1 <0>        -0.1316
     22 H2         -0.5289    1.8773    0.9072 H         1 <0>         0.0675
     23 H3         -0.5459    1.8868   -0.8726 H         1 <0>         0.0642
     24 H4          1.4019    3.1452    0.0056 H         1 <0>         0.0684
     25 H5          1.9439    1.6943    0.8826 H         1 <0>         0.0654
     26 H6          1.6057    1.9230   -2.1423 H         1 <0>         0.0679
     27 H7          3.1554    1.9392   -1.2670 H         1 <0>         0.0645
     28 H8          2.6808   -0.3290   -0.3846 H         1 <0>         0.0864
     29 H9          0.1910   -0.1364   -2.1398 H         1 <0>         0.0751
     30 H10         0.7330   -1.5874   -1.2628 H         1 <0>         0.0798
     31 H11         0.5293   -0.3651    0.8851 H         1 <0>         0.0658
     32 H12        -1.0205   -0.3814    0.0098 H         1 <0>         0.0714
     33 H13         2.2945   -0.1759   -3.4072 H         1 <0>         0.1374
     34 H14         3.8618   -0.0129   -2.5794 H         1 <0>         0.1282
     35 H15         3.3533   -3.2071   -4.5385 H         1 <0>         0.4246
     36 H16         6.0315   -3.5398   -2.5998 H         1 <0>         0.1301
     37 H17         5.9441   -4.2458   -4.2314 H         1 <0>         0.0978
     38 H18         7.7933   -1.9686   -3.3903 H         1 <0>         0.1339
     39 H19         8.2828   -3.6660   -3.6027 H         1 <0>         0.1427
     40 H20         8.7272   -2.3780   -5.5510 H         1 <0>         0.4309
     41 H21         5.1147   -2.8065   -6.1696 H         1 <0>         0.1000
     42 H22         4.7732   -1.0839   -5.8696 H         1 <0>         0.1194
     43 H23         6.4267    0.4984   -5.2889 H         1 <0>         0.1241
     44 H24         7.8513   -0.2131   -4.4138 H         1 <0>         0.0926
     45 H25         8.0598    0.9047   -7.0707 H         1 <0>         0.1002
     46 H26         9.1265   -0.4479   -6.4934 H         1 <0>         0.0919
     47 H27         7.6556   -1.8428   -7.8706 H         1 <0>         0.0936
     48 H28         6.2883   -0.6541   -7.7333 H         1 <0>         0.1249
     49 H29         7.5756   -3.5088   -5.8794 H         1 <0>         0.4304
@<TRIPOS>BOND
     1    1    6 1
     2    1    2 1
     3    1   22 1
     4    1   23 1
     5    2    3 1
     6    2   24 1
     7    2   25 1
     8    3    4 1
     9    3   26 1
    10    3   27 1
    11    4    5 1
    12    4    7 1
    13    4   28 1
    14    5    6 1
    15    5   29 1
    16    5   30 1
    17    6   31 1
    18    6   32 1
    19    7    8 1
    20    7   33 1
    21    7   34 1
    22    8    9 2
    23    8   10 2
    24    8   11 1
    25   11   12 1
    26   11   35 1
    27   12   13 1
    28   12   18 1
    29   12   14 1
    30   14   15 1
    31   14   36 1
    32   14   37 1
    33   15   16 1
    34   15   38 1
    35   15   39 1
    36   16   17 1
    37   16   40 1
    38   16   49 1
    39   17   21 1
    40   17   18 1
    41   17   19 1
    42   18   41 1
    43   18   42 1
    44   19   20 1
    45   19   43 1
    46   19   44 1
    47   20   21 1
    48   20   45 1
    49   20   46 1
    50   21   47 1
    51   21   48 1
@<TRIPOS>MOLECULE
ZINC53096348
   47    49     0     0     0
SMALL
USER_CHARGES

@<TRIPOS>ATOM
      1 C1          0.2438    1.1641    0.5760 C.ar      1 <0>        -0.1028
      2 C2          1.4072    1.9023    0.4629 C.ar      1 <0>        -0.0805
      3 C3          2.6174    1.2665    0.2506 C.ar      1 <0>        -0.1605
      4 C4          2.6593   -0.1139    0.1514 C.ar      1 <0>         0.0841
      5 C5          1.4916   -0.8548    0.2642 C.ar      1 <0>         0.0756
      6 C6          0.2821   -0.2153    0.4769 C.ar      1 <0>        -0.0838
      7 O1          1.5439   -2.2149    0.1660 O.3       1 <0>        -0.3123
      8 C7          1.8744   -2.7360   -1.1230 C.3       1 <0>         0.0581
      9 C8          3.3819   -2.7755   -1.3185 C.3       1 <0>        -0.1906
     10 C9          4.0009   -1.3866   -1.3286 C.3       1 <0>         0.0499
     11 O2          3.8466   -0.7538   -0.0565 O.3       1 <0>        -0.3200
     12 C10         3.8846    2.0729    0.1273 C.3       1 <0>         0.0436
     13 N1          4.2333    2.2230   -1.2918 N.4       1 <0>        -0.4996
     14 C11         5.3950    3.1132   -1.4191 C.3       1 <0>         0.0669
     15 C12         5.7686    3.2560   -2.8959 C.3       1 <0>        -0.1342
     16 C13         6.1148    1.8806   -3.4697 C.3       1 <0>        -0.1366
     17 C14         7.2971    1.2894   -2.6994 C.3       1 <0>        -0.1334
     18 C15         6.9234    1.1465   -1.2226 C.3       1 <0>        -0.1364
     19 C16         6.5773    2.5220   -0.6487 C.3       1 <0>        -0.1392
     20 C17         5.0488    4.4886   -0.8452 C.3       1 <0>         0.0577
     21 O3          3.8665    4.9843   -1.4765 O.3       1 <0>        -0.5789
     22 H1         -0.6973    1.6655    0.7468 H         1 <0>         0.1476
     23 H2          1.3713    2.9789    0.5408 H         1 <0>         0.1435
     24 H3         -0.6275   -0.7908    0.5654 H         1 <0>         0.1489
     25 H4          1.4741   -3.7456   -1.2153 H         1 <0>         0.1156
     26 H5          1.4295   -2.1029   -1.8907 H         1 <0>         0.0602
     27 H6          3.8277   -3.3549   -0.5101 H         1 <0>         0.0937
     28 H7          3.6023   -3.2671   -2.2661 H         1 <0>         0.1009
     29 H8          5.0624   -1.4686   -1.5621 H         1 <0>         0.1146
     30 H9          3.5120   -0.7814   -2.0920 H         1 <0>         0.0524
     31 H10         3.7334    3.0573    0.5703 H         1 <0>         0.1413
     32 H11         4.6935    1.5604    0.6480 H         1 <0>         0.1434
     33 H12         4.4579    1.3193   -1.6804 H         1 <0>         0.4168
     34 H13         4.9263    3.6772   -3.4447 H         1 <0>         0.0967
     35 H14         6.6306    3.9165   -2.9903 H         1 <0>         0.1125
     36 H15         5.2528    1.2201   -3.3753 H         1 <0>         0.0517
     37 H16         6.3810    1.9824   -4.5218 H         1 <0>         0.0952
     38 H17         7.5437    0.3096   -3.1082 H         1 <0>         0.0814
     39 H18         8.1591    1.9499   -2.7938 H         1 <0>         0.0821
     40 H19         6.0615    0.4861   -1.1282 H         1 <0>         0.0591
     41 H20         7.7657    0.7254   -0.6738 H         1 <0>         0.0966
     42 H21         7.4392    3.1824   -0.7431 H         1 <0>         0.1149
     43 H22         6.3111    2.4202    0.4034 H         1 <0>         0.0926
     44 H23         4.8787    4.4022    0.2280 H         1 <0>         0.0748
     45 H24         5.8741    5.1767   -1.0280 H         1 <0>         0.0949
     46 H25         3.5876    5.8547   -1.1608 H         1 <0>         0.4101
     47 H26         3.4504    2.6184   -1.7906 H         1 <0>         0.4312
@<TRIPOS>BOND
     1    1    6 ar
     2    1    2 ar
     3    1   22 1
     4    2    3 ar
     5    2   23 1
     6    3    4 ar
     7    3   12 1
     8    4   11 1
     9    4    5 ar
    10    5    6 ar
    11    5    7 1
    12    6   24 1
    13    7    8 1
    14    8    9 1
    15    8   25 1
    16    8   26 1
    17    9   10 1
    18    9   27 1
    19    9   28 1
    20   10   11 1
    21   10   29 1
    22   10   30 1
    23   12   13 1
    24   12   31 1
    25   12   32 1
    26   13   14 1
    27   13   33 1
    28   13   47 1
    29   14   19 1
    30   14   15 1
    31   14   20 1
    32   15   16 1
    33   15   34 1
    34   15   35 1
    35   16   17 1
    36   16   36 1
    37   16   37 1
    38   17   18 1
    39   17   38 1
    40   17   39 1
    41   18   19 1
    42   18   40 1
    43   18   41 1
    44   19   42 1
    45   19   43 1
    46   20   21 1
    47   20   44 1
    48   20   45 1
    49   21   46 1
@<TRIPOS>MOLECULE
ZINC62893117
   45    46     0     0     0
SMALL
USER_CHARGES

@<TRIPOS>ATOM
      1 C1          0.7140   -0.5286   -1.2684 C.3       1 <0>        -0.1685
      2 C2          0.0088   -0.0180   -0.0103 C.3       1 <0>        -0.1138
      3 C3         -1.4644   -0.4290   -0.0491 C.3       1 <0>        -0.1012
      4 C4         -2.1991    0.0884    1.2090 C.3       1 <0>        -0.1395
      5 C5         -3.1470   -1.0848    1.5636 C.3       1 <0>        -0.0039
      6 N1         -2.3318   -2.2866    1.2516 N.4       1 <0>        -0.5134
      7 C6         -1.5934   -1.9623    0.0119 C.3       1 <0>        -0.0018
      8 C7         -2.1220    0.1020   -1.2967 C.2       1 <0>         0.5281
      9 O1         -2.6972   -0.6560   -2.0486 O.2       1 <0>        -0.5260
     10 N2         -2.0710    1.4194   -1.5769 N.am      1 <0>        -0.7111
     11 C8         -2.6111    1.9204   -2.8432 C.3       1 <0>         0.1901
     12 H1         -3.4877    1.3352   -3.1212 H         1 <0>         0.1047
     13 C9         -1.5475    1.7962   -3.9361 C.3       1 <0>        -0.1624
     14 C10        -3.0023    3.3671   -2.6851 C.ar      1 <0>        -0.1144
     15 C11        -2.1968    4.2243   -1.9586 C.ar      1 <0>        -0.0854
     16 C12        -2.5526    5.5513   -1.8111 C.ar      1 <0>        -0.1771
     17 C13        -3.7189    6.0245   -2.3929 C.ar      1 <0>         0.1063
     18 C14        -4.5271    5.1623   -3.1230 C.ar      1 <0>         0.0788
     19 C15        -4.1632    3.8359   -3.2716 C.ar      1 <0>        -0.1010
     20 F1         -5.6642    5.6196   -3.6914 F         1 <0>        -0.1244
     21 O2         -4.0710    7.3297   -2.2487 O.3       1 <0>        -0.3052
     22 C16        -3.1925    8.1580   -1.4844 C.3       1 <0>         0.0238
     23 H2          1.7408   -0.1632   -1.2830 H         1 <0>         0.0753
     24 H3          0.7162   -1.6186   -1.2666 H         1 <0>         0.0607
     25 H4          0.1874   -0.1678   -2.1519 H         1 <0>         0.0634
     26 H5          0.4829   -0.4481    0.8719 H         1 <0>         0.0869
     27 H6          0.0819    1.0688    0.0314 H         1 <0>         0.0867
     28 H7         -1.4936    0.2726    2.0192 H         1 <0>         0.1149
     29 H8         -2.7688    0.9889    0.9800 H         1 <0>         0.1193
     30 H9         -3.4089   -1.0615    2.6214 H         1 <0>         0.1448
     31 H10        -4.0431   -1.0562    0.9436 H         1 <0>         0.1376
     32 H11        -1.6850   -2.4730    2.0033 H         1 <0>         0.4318
     33 H12        -2.1467   -2.3231   -0.8551 H         1 <0>         0.1558
     34 H13        -0.6033   -2.4174    0.0396 H         1 <0>         0.1435
     35 H14        -1.6766    2.0357   -0.9402 H         1 <0>         0.4032
     36 H15        -0.6709    2.3813   -3.6581 H         1 <0>         0.0639
     37 H16        -1.2645    0.7498   -4.0504 H         1 <0>         0.0655
     38 H17        -1.9494    2.1689   -4.8782 H         1 <0>         0.0776
     39 H18        -1.2883    3.8560   -1.5053 H         1 <0>         0.1282
     40 H19        -1.9227    6.2196   -1.2427 H         1 <0>         0.1433
     41 H20        -4.7883    3.1655   -3.8427 H         1 <0>         0.1471
     42 H21        -3.1103    7.7632   -0.4718 H         1 <0>         0.0596
     43 H22        -2.2074    8.1703   -1.9508 H         1 <0>         0.0611
     44 H23        -3.5898    9.1724   -1.4478 H         1 <0>         0.1092
     45 H24        -2.9313   -3.0841    1.1010 H         1 <0>         0.4377
@<TRIPOS>BOND
     1    1    2 1
     2    1   23 1
     3    1   24 1
     4    1   25 1
     5    2    3 1
     6    2   26 1
     7    2   27 1
     8    3    7 1
     9    3    4 1
    10    3    8 1
    11    4    5 1
    12    4   28 1
    13    4   29 1
    14    5    6 1
    15    5   30 1
    16    5   31 1
    17    6    7 1
    18    6   32 1
    19    6   45 1
    20    7   33 1
    21    7   34 1
    22    8    9 2
    23    8   10 am
    24   10   11 1
    25   10   35 1
    26   11   12 1
    27   11   13 1
    28   11   14 1
    29   13   36 1
    30   13   37 1
    31   13   38 1
    32   14   19 ar
    33   14   15 ar
    34   15   16 ar
    35   15   39 1
    36   16   17 ar
    37   16   40 1
    38   17   18 ar
    39   17   21 1
    40   18   19 ar
    41   18   20 1
    42   19   41 1
    43   21   22 1
    44   22   42 1
    45   22   43 1
    46   22   44 1
@<TRIPOS>MOLECULE
ZINC11861542
   58    59     0     0     0
SMALL
USER_CHARGES
2-[4-[2-(4-tert-butylphenoxy)ethoxy]-3-chloro-5-ethoxy-phenyl]ethanamine
@<TRIPOS>ATOM
      1 C1         -2.9739    6.5967   -0.5901 C.3       1 <0>        -0.1563
      2 C2         -2.0592    7.6545    0.0306 C.3       1 <0>         0.0534
      3 O1         -0.8287    7.0464    0.4281 O.3       1 <0>        -0.2898
      4 C3          0.1023    7.8546    1.0021 C.ar      1 <0>         0.1386
      5 C4         -0.1633    9.2033    1.1790 C.ar      1 <0>        -0.1906
      6 C5          0.7834   10.0237    1.7634 C.ar      1 <0>        -0.0625
      7 C6          1.9970    9.5025    2.1718 C.ar      1 <0>        -0.1296
      8 C7          2.2666    8.1561    2.0035 C.ar      1 <0>        -0.0183
      9 C8          1.3230    7.3291    1.4131 C.ar      1 <0>         0.0870
     10 O2          1.5881    6.0061    1.2415 O.3       1 <0>        -0.3048
     11 C9          2.2077    5.6228    0.0121 C.3       1 <0>         0.0703
     12 C10         2.4257    4.1084    0.0014 C.3       1 <0>         0.0633
     13 O3          1.1601    3.4449    0.0099 O.3       1 <0>        -0.3058
     14 C11         1.1759    2.0860    0.0020 C.ar      1 <0>         0.1230
     15 C12        -0.0167    1.3772    0.0096 C.ar      1 <0>        -0.1471
     16 C13         0.0021   -0.0041    0.0020 C.ar      1 <0>        -0.0753
     17 C14         1.2080   -0.6802   -0.0131 C.ar      1 <0>        -0.1038
     18 C15         2.3980    0.0239   -0.0207 C.ar      1 <0>        -0.0803
     19 C16         2.3846    1.4052   -0.0127 C.ar      1 <0>        -0.2075
     20 C17         1.2256   -2.1871   -0.0209 C.3       1 <0>        -0.0270
     21 C18         0.4981   -2.6992   -1.2657 C.3       1 <0>        -0.1399
     22 C19         2.6738   -2.6802   -0.0375 C.3       1 <0>        -0.1460
     23 C20         0.5225   -2.7117    1.2326 C.3       1 <0>        -0.1398
     24 Cl1         3.7882    7.5034    2.5251 Cl        1 <0>        -0.0299
     25 C21         0.4921   11.4898    1.9552 C.3       1 <0>        -0.1029
     26 C22        -0.1652   11.7049    3.3199 C.3       1 <0>        -0.0034
     27 H1         -2.4858    6.1607   -1.4618 H         1 <0>         0.0710
     28 H2         -3.1749    5.8151    0.1426 H         1 <0>         0.0715
     29 H3         -3.9125    7.0606   -0.8933 H         1 <0>         0.0831
     30 H4         -2.5473    8.0905    0.9023 H         1 <0>         0.0627
     31 H5         -1.8582    8.4361   -0.7021 H         1 <0>         0.0638
     32 H6         -1.1103    9.6133    0.8606 H         1 <0>         0.1410
     33 H7          2.7344   10.1469    2.6273 H         1 <0>         0.1423
     34 H8          3.1682    6.1289   -0.0839 H         1 <0>         0.0776
     35 H9          1.5643    5.9032   -0.8219 H         1 <0>         0.0701
     36 H10         2.9947    3.8170    0.8842 H         1 <0>         0.0751
     37 H11         2.9774    3.8272   -0.8956 H         1 <0>         0.0849
     38 H12        -0.9589    1.9049    0.0169 H         1 <0>         0.1284
     39 H13        -0.9261   -0.5563    0.0076 H         1 <0>         0.1281
     40 H14         3.3387   -0.5065   -0.0325 H         1 <0>         0.1296
     41 H15         3.3144    1.9547   -0.0186 H         1 <0>         0.1250
     42 H16         0.9990   -2.3254   -2.1587 H         1 <0>         0.0561
     43 H17         0.5108   -3.7891   -1.2713 H         1 <0>         0.0597
     44 H18        -0.5336   -2.3478   -1.2539 H         1 <0>         0.0566
     45 H19         3.1920   -2.3154    0.8494 H         1 <0>         0.0581
     46 H20         2.6865   -3.7701   -0.0431 H         1 <0>         0.0602
     47 H21         3.1747   -2.3064   -0.9305 H         1 <0>         0.0582
     48 H22        -0.5093   -2.3604    1.2444 H         1 <0>         0.0565
     49 H23         0.5351   -3.8017    1.2270 H         1 <0>         0.0597
     50 H24         1.0407   -2.3469    2.1195 H         1 <0>         0.0560
     51 H25         1.4232   12.0545    1.9073 H         1 <0>         0.1021
     52 H26        -0.1814   11.8322    1.1695 H         1 <0>         0.1002
     53 H27        -1.0963   11.1401    3.3678 H         1 <0>         0.1373
     54 H28         0.5082   11.3624    4.1056 H         1 <0>         0.1363
     55 H29        -1.0196   13.4907    2.7550 H         1 <0>         0.4375
     56 H30        -0.8839   13.3022    4.4018 H         1 <0>         0.4425
     57 N1         -0.4256   13.1433    3.5060 N.4       1 <0>        -0.6469
     58 H31         0.4659   13.6524    3.4908 H         1 <0>         0.4406
@<TRIPOS>BOND
     1    1    2 1
     2    1   27 1
     3    1   28 1
     4    1   29 1
     5    2    3 1
     6    2   30 1
     7    2   31 1
     8    3    4 1
     9    4    9 ar
    10    4    5 ar
    11    5    6 ar
    12    5   32 1
    13    6    7 ar
    14    6   25 1
    15    7    8 ar
    16    7   33 1
    17    8    9 ar
    18    8   24 1
    19    9   10 1
    20   10   11 1
    21   11   12 1
    22   11   34 1
    23   11   35 1
    24   12   13 1
    25   12   36 1
    26   12   37 1
    27   13   14 1
    28   14   19 ar
    29   14   15 ar
    30   15   16 ar
    31   15   38 1
    32   16   17 ar
    33   16   39 1
    34   17   18 ar
    35   17   20 1
    36   18   19 ar
    37   18   40 1
    38   19   41 1
    39   20   21 1
    40   20   22 1
    41   20   23 1
    42   21   42 1
    43   21   43 1
    44   21   44 1
    45   22   45 1
    46   22   46 1
    47   22   47 1
    48   23   48 1
    49   23   49 1
    50   23   50 1
    51   25   26 1
    52   25   51 1
    53   25   52 1
    54   26   53 1
    55   26   54 1
    56   26   57 1
    57   55   57 1
    58   56   57 1
    59   57   58 1
@<TRIPOS>MOLECULE
ZINC28296586
   71    76     0     0     0
SMALL
USER_CHARGES
(2S)-1-(2,3-diphenylbenzo[g]indol-1-yl)-3-[[(1S)-1-phenylethyl]amino]propan-2-ol
@<TRIPOS>ATOM
      1 C1          5.2240   -3.7197   -0.8888 C.3       1 <0>        -0.1787
      2 C2          5.9821   -2.4176   -1.1548 C.3       1 <0>         0.0897
      3 H1          6.1160   -1.8432   -0.2263 H         1 <0>         0.1396
      4 C3          7.3274   -2.7334   -1.7561 C.ar      1 <0>        -0.1431
      5 C4          7.4298   -3.0337   -3.1015 C.ar      1 <0>        -0.1207
      6 C5          8.6644   -3.3191   -3.6539 C.ar      1 <0>        -0.1053
      7 C6          9.7954   -3.3131   -2.8590 C.ar      1 <0>        -0.0919
      8 C7          9.6922   -3.0179   -1.5125 C.ar      1 <0>        -0.1058
      9 C8          8.4582   -2.7283   -0.9610 C.ar      1 <0>        -0.0893
     10 N1          5.2120   -1.5845   -2.0881 N.4       1 <0>        -0.5361
     11 C9          4.2105   -0.7817   -1.3737 C.3       1 <0>         0.0055
     12 C10         3.4303    0.0706   -2.3766 C.3       1 <0>         0.0739
     13 H2          2.9619   -0.5540   -3.1515 H         1 <0>         0.0856
     14 C11         2.3872    0.9068   -1.6326 C.3       1 <0>         0.0638
     15 N2          1.5833    1.6581   -2.5998 N.pl3     1 <0>        -0.4536
     16 C12         0.4930    1.1603   -3.2703 C.ar      1 <0>         0.0908
     17 C13        -0.1507   -0.0982   -3.2574 C.ar      1 <0>        -0.0328
     18 C14         0.3130   -1.1405   -2.4415 C.ar      1 <0>        -0.1383
     19 C15        -0.3293   -2.3424   -2.4511 C.ar      1 <0>        -0.1111
     20 C16        -1.4414   -2.5512   -3.2618 C.ar      1 <0>        -0.1179
     21 C17        -1.9177   -1.5604   -4.0666 C.ar      1 <0>        -0.0927
     22 C18        -1.2813   -0.3091   -4.0821 C.ar      1 <0>        -0.0273
     23 C19        -1.7539    0.7336   -4.9063 C.ar      1 <0>        -0.1290
     24 C20        -1.1356    1.9391   -4.9058 C.ar      1 <0>        -0.0565
     25 C21        -0.0071    2.1697   -4.0977 C.ar      1 <0>        -0.0888
     26 C22         0.8636    3.3363   -3.8974 C.2       1 <0>        -0.0837
     27 C23         1.8146    2.9584   -2.9708 C.2       1 <0>         0.1024
     28 C24         2.9039    3.8150   -2.4613 C.ar      1 <0>        -0.0308
     29 C25         3.0797    3.9825   -1.0859 C.ar      1 <0>        -0.1100
     30 C26         4.1030    4.7797   -0.6168 C.ar      1 <0>        -0.1150
     31 C27         4.9471    5.4218   -1.5055 C.ar      1 <0>        -0.1054
     32 C28         4.7752    5.2649   -2.8695 C.ar      1 <0>        -0.1103
     33 C29         3.7597    4.4662   -3.3525 C.ar      1 <0>        -0.0872
     34 C30         0.7442    4.6556   -4.5578 C.ar      1 <0>        -0.0191
     35 C31         0.4399    5.7906   -3.8056 C.ar      1 <0>        -0.0990
     36 C32         0.3353    7.0183   -4.4263 C.ar      1 <0>        -0.1165
     37 C33         0.5206    7.1235   -5.7934 C.ar      1 <0>        -0.1139
     38 C34         0.8174    6.0010   -6.5456 C.ar      1 <0>        -0.1179
     39 C35         0.9300    4.7684   -5.9360 C.ar      1 <0>        -0.1059
     40 O1          4.3317    0.9381   -3.0673 O.3       1 <0>        -0.5975
     41 H3          4.2421   -3.4892   -0.4499 H         1 <0>         0.0823
     42 H4          5.8007   -4.3435   -0.1900 H         1 <0>         0.1078
     43 H5          5.0843   -4.2625   -1.8353 H         1 <0>         0.0846
     44 H6          6.5457   -3.0421   -3.7218 H         1 <0>         0.1200
     45 H7          8.7451   -3.5494   -4.7060 H         1 <0>         0.1349
     46 H8         10.7596   -3.5387   -3.2901 H         1 <0>         0.1355
     47 H9         10.5758   -3.0132   -0.8915 H         1 <0>         0.1365
     48 H10         8.3776   -2.4976    0.0910 H         1 <0>         0.1323
     49 H11         5.8935   -0.9053   -2.6213 H         1 <0>         0.4613
     50 H12         3.5167   -1.4495   -0.8420 H         1 <0>         0.1423
     51 H13         4.7153   -0.1256   -0.6494 H         1 <0>         0.1402
     52 H14         1.7327    0.2423   -1.0494 H         1 <0>         0.1096
     53 H15         2.8953    1.6083   -0.9546 H         1 <0>         0.1163
     54 H16         1.1747   -0.9911   -1.8079 H         1 <0>         0.1147
     55 H17         0.0294   -3.1435   -1.8218 H         1 <0>         0.1218
     56 H18        -1.9335   -3.5126   -3.2531 H         1 <0>         0.1272
     57 H19        -2.7814   -1.7370   -4.6906 H         1 <0>         0.1338
     58 H20        -2.6171    0.5725   -5.5352 H         1 <0>         0.1334
     59 H21        -1.5066    2.7292   -5.5419 H         1 <0>         0.1279
     60 H22         2.4186    3.4858   -0.3912 H         1 <0>         0.1177
     61 H23         4.2429    4.9066    0.4466 H         1 <0>         0.1259
     62 H24         5.7442    6.0481   -1.1328 H         1 <0>         0.1263
     63 H25         5.4379    5.7687   -3.5576 H         1 <0>         0.1283
     64 H26         3.6268    4.3443   -4.4174 H         1 <0>         0.1264
     65 H27         0.2906    5.7090   -2.7390 H         1 <0>         0.1176
     66 H28         0.1038    7.8983   -3.8446 H         1 <0>         0.1237
     67 H29         0.4335    8.0861   -6.2753 H         1 <0>         0.1236
     68 H30         0.9609    6.0896   -7.6124 H         1 <0>         0.1244
     69 H31         1.1617    3.8928   -6.5243 H         1 <0>         0.1205
     70 H32         3.9509    1.6304   -3.8327 H         1 <0>         0.4389
     71 H33         4.6948   -2.2292   -2.8140 H         1 <0>         0.4440
@<TRIPOS>BOND
     1    1    2 1
     2    1   41 1
     3    1   42 1
     4    1   43 1
     5    2    3 1
     6    2    4 1
     7    2   10 1
     8    4    9 ar
     9    4    5 ar
    10    5    6 ar
    11    5   44 1
    12    6    7 ar
    13    6   45 1
    14    7    8 ar
    15    7   46 1
    16    8    9 ar
    17    8   47 1
    18    9   48 1
    19   10   11 1
    20   10   49 1
    21   10   71 1
    22   11   12 1
    23   11   50 1
    24   11   51 1
    25   12   13 1
    26   12   14 1
    27   12   40 1
    28   14   15 1
    29   14   52 1
    30   14   53 1
    31   15   27 1
    32   15   16 1
    33   16   25 ar
    34   16   17 ar
    35   17   22 ar
    36   17   18 ar
    37   18   19 ar
    38   18   54 1
    39   19   20 ar
    40   19   55 1
    41   20   21 ar
    42   20   56 1
    43   21   22 ar
    44   21   57 1
    45   22   23 ar
    46   23   24 ar
    47   23   58 1
    48   24   25 ar
    49   24   59 1
    50   25   26 1
    51   26   27 2
    52   26   34 1
    53   27   28 1
    54   28   33 ar
    55   28   29 ar
    56   29   30 ar
    57   29   60 1
    58   30   31 ar
    59   30   61 1
    60   31   32 ar
    61   31   62 1
    62   32   33 ar
    63   32   63 1
    64   33   64 1
    65   34   39 ar
    66   34   35 ar
    67   35   36 ar
    68   35   65 1
    69   36   37 ar
    70   36   66 1
    71   37   38 ar
    72   37   67 1
    73   38   39 ar
    74   38   68 1
    75   39   69 1
    76   40   70 1
@<TRIPOS>MOLECULE
ZINC40730484
   41    41     0     0     0
SMALL
USER_CHARGES

@<TRIPOS>ATOM
      1 C1          0.0836   -2.2435    1.3451 C.3       1 <0>        -0.1775
      2 C2         -0.8611   -1.9756    0.1718 C.3       1 <0>        -0.1437
      3 C3         -1.3119   -0.5138    0.2035 C.3       1 <0>         0.0305
      4 H1         -0.4369    0.1360    0.2166 H         1 <0>         0.1517
      5 C4         -2.1526   -0.2124   -1.0388 C.3       1 <0>         0.0491
      6 O1         -3.2357   -1.1411   -1.1178 O.3       1 <0>        -0.5766
      7 N1         -2.1167   -0.2757    1.4091 N.4       1 <0>        -0.5079
      8 C5         -2.4409    1.1538    1.5069 C.3       1 <0>         0.0458
      9 C6         -3.1555    1.4190    2.8070 C.ar      1 <0>        -0.1658
     10 C7         -4.5341    1.3331    2.8665 C.ar      1 <0>        -0.0367
     11 C8         -5.1923    1.5763    4.0576 C.ar      1 <0>        -0.1170
     12 C9         -4.4678    1.9064    5.1943 C.ar      1 <0>         0.1947
     13 C10        -3.0841    1.9914    5.1317 C.ar      1 <0>        -0.1170
     14 C11        -2.4308    1.7421    3.9392 C.ar      1 <0>        -0.0394
     15 Br1        -2.0926    2.4409    6.6780 Br        1 <0>         0.0112
     16 O2         -5.1125    2.1465    6.3668 O.3       1 <0>        -0.3142
     17 C12        -5.3311    1.0272    7.2279 C.3       1 <0>         0.0949
     18 C13        -4.1432    0.8768    8.1803 C.3       1 <0>        -0.1930
     19 C14        -6.6096    1.2494    8.0384 C.3       1 <0>        -0.1539
     20 Br2        -7.0780    1.4598    4.1378 Br        1 <0>         0.0068
     21 H2          0.4927   -3.2502    1.2597 H         1 <0>         0.0856
     22 H3          0.8971   -1.5182    1.3296 H         1 <0>         0.0710
     23 H4         -0.4660   -2.1530    2.2821 H         1 <0>         0.0525
     24 H5         -0.3419   -2.1754   -0.7656 H         1 <0>         0.1119
     25 H6         -1.7320   -2.6262    0.2507 H         1 <0>         0.0970
     26 H7         -2.5474    0.8015   -0.9730 H         1 <0>         0.0726
     27 H8         -1.5305   -0.3030   -1.9292 H         1 <0>         0.0959
     28 H9         -3.8120   -1.0091   -1.8831 H         1 <0>         0.4095
     29 H10        -2.9702   -0.8111    1.3549 H         1 <0>         0.4337
     30 H11        -1.5214    1.7381    1.4720 H         1 <0>         0.1451
     31 H12        -3.0840    1.4383    0.6742 H         1 <0>         0.1439
     32 H13        -5.0974    1.0761    1.9816 H         1 <0>         0.1529
     33 H14        -1.3537    1.8042    3.8909 H         1 <0>         0.1529
     34 H15        -5.4334    0.1224    6.6288 H         1 <0>         0.0659
     35 H16        -4.0410    1.7817    8.7794 H         1 <0>         0.0747
     36 H17        -4.3100    0.0231    8.8372 H         1 <0>         0.0750
     37 H18        -3.2323    0.7185    7.6029 H         1 <0>         0.0675
     38 H19        -7.4560    1.3566    7.3599 H         1 <0>         0.0684
     39 H20        -6.7764    0.3957    8.6952 H         1 <0>         0.0827
     40 H21        -6.5074    2.1543    8.6375 H         1 <0>         0.0729
     41 H22        -1.5935   -0.5585    2.2241 H         1 <0>         0.4262
@<TRIPOS>BOND
     1    1    2 1
     2    1   21 1
     3    1   22 1
     4    1   23 1
     5    2    3 1
     6    2   24 1
     7    2   25 1
     8    3    4 1
     9    3    5 1
    10    3    7 1
    11    5    6 1
    12    5   26 1
    13    5   27 1
    14    6   28 1
    15    7    8 1
    16    7   29 1
    17    7   41 1
    18    8    9 1
    19    8   30 1
    20    8   31 1
    21    9   14 ar
    22    9   10 ar
    23   10   11 ar
    24   10   32 1
    25   11   12 ar
    26   11   20 1
    27   12   13 ar
    28   12   16 1
    29   13   14 ar
    30   13   15 1
    31   14   33 1
    32   16   17 1
    33   17   18 1
    34   17   19 1
    35   17   34 1
    36   18   35 1
    37   18   36 1
    38   18   37 1
    39   19   38 1
    40   19   39 1
    41   19   40 1
@<TRIPOS>MOLECULE
ZINC43289252
   40    41     0     0     0
SMALL
USER_CHARGES

@<TRIPOS>ATOM
      1 C1         -2.8979    0.8155    1.7604 C.3       1 <0>        -0.1726
      2 C2         -2.5923   -0.6519    1.4536 C.3       1 <0>        -0.1511
      3 C3         -1.6503   -0.7360    0.2510 C.3       1 <0>         0.0135
      4 H1         -2.1017   -0.2268   -0.6005 H         1 <0>         0.1588
      5 C4         -1.4059   -2.2042   -0.1037 C.3       1 <0>         0.1687
      6 H2         -0.6613   -2.2671   -0.8973 H         1 <0>         0.1098
      7 C5         -2.6945   -2.8287   -0.5732 C.2       1 <0>        -0.2013
      8 C6         -3.1126   -3.0740   -1.8391 C.2       1 <0>        -0.0947
      9 C7         -4.3482   -3.6630   -2.0348 C.2       1 <0>        -0.1412
     10 C8         -5.1046   -3.9777   -0.9545 C.2       1 <0>        -0.1192
     11 S1         -4.0630   -3.4446    0.3938 S.3       1 <0>         0.1428
     12 Br1        -4.9736   -4.0236   -3.7826 Br        1 <0>        -0.0150
     13 O1         -0.9319   -2.9006    1.0505 O.3       1 <0>        -0.3631
     14 C9          0.4508   -3.2558    0.9880 C.3       1 <0>         0.0543
     15 C10         0.8183   -4.0933    2.2145 C.3       1 <0>        -0.0218
     16 C11         2.2765   -4.4679    2.1485 C.2       1 <0>        -0.2291
     17 C12         3.3623   -3.8150    2.6361 C.2       1 <0>         0.0746
     18 N1          4.5377   -4.3762    2.4335 N.2       1 <0>        -0.5161
     19 C13         4.6489   -5.5119    1.7908 C.2       1 <0>         0.0459
     20 S2          3.0545   -5.8975    1.4141 S.3       1 <0>         0.1230
     21 C14         3.2300   -2.5081    3.3747 C.3       1 <0>        -0.0816
     22 N2         -0.3720   -0.0935    0.5844 N.4       1 <0>        -0.6379
     23 H3         -3.5690    0.8755    2.6172 H         1 <0>         0.0865
     24 H4         -1.9699    1.3399    1.9884 H         1 <0>         0.0518
     25 H5         -3.3724    1.2767    0.8942 H         1 <0>         0.0724
     26 H6         -2.1178   -1.1130    2.3198 H         1 <0>         0.1010
     27 H7         -3.5203   -1.1763    1.2256 H         1 <0>         0.1147
     28 H8         -2.4902   -2.8129   -2.6822 H         1 <0>         0.1462
     29 H9         -6.0818   -4.4363   -0.9188 H         1 <0>         0.2041
     30 H10         0.6366   -3.8351    0.0835 H         1 <0>         0.0739
     31 H11         1.0581   -2.3507    0.9708 H         1 <0>         0.0478
     32 H12         0.6326   -3.5140    3.1189 H         1 <0>         0.1004
     33 H13         0.2111   -4.9983    2.2316 H         1 <0>         0.0981
     34 H14         5.5459   -6.0683    1.5621 H         1 <0>         0.2232
     35 H15         3.1068   -2.7036    4.4399 H         1 <0>         0.0813
     36 H16         4.1268   -1.9090    3.2167 H         1 <0>         0.0792
     37 H17         2.3607   -1.9664    3.0018 H         1 <0>         0.0635
     38 H18        -0.0020   -0.4998    1.4306 H         1 <0>         0.4343
     39 H19         0.2824   -0.2347   -0.1705 H         1 <0>         0.4342
     40 H20        -0.5184    0.8953    0.7221 H         1 <0>         0.4407
@<TRIPOS>BOND
     1    1    2 1
     2    1   23 1
     3    1   24 1
     4    1   25 1
     5    2    3 1
     6    2   26 1
     7    2   27 1
     8    3    4 1
     9    3    5 1
    10    3   22 1
    11    5    6 1
    12    5    7 1
    13    5   13 1
    14    7   11 1
    15    7    8 2
    16    8    9 1
    17    8   28 1
    18    9   10 2
    19    9   12 1
    20   10   11 1
    21   10   29 1
    22   13   14 1
    23   14   15 1
    24   14   30 1
    25   14   31 1
    26   15   16 1
    27   15   32 1
    28   15   33 1
    29   16   20 1
    30   16   17 2
    31   17   18 1
    32   17   21 1
    33   18   19 2
    34   19   20 1
    35   19   34 1
    36   21   35 1
    37   21   36 1
    38   21   37 1
    39   22   38 1
    40   22   39 1
    41   22   40 1
@<TRIPOS>MOLECULE
ZINC67252390
   39    40     0     0     0
SMALL
USER_CHARGES

@<TRIPOS>ATOM
      1 C1         -0.0167    1.3829    0.0096 C.ar      1 <0>        -0.1135
      2 C2          1.1705    2.0892    0.0021 C.ar      1 <0>        -0.1102
      3 C3          2.3788    1.4133   -0.0131 C.ar      1 <0>         0.0739
      4 C4          2.3990    0.0289   -0.0212 C.ar      1 <0>        -0.1137
      5 C5          1.2133   -0.6799   -0.0141 C.ar      1 <0>        -0.1799
      6 C6          0.0021   -0.0041    0.0020 C.ar      1 <0>         0.1080
      7 O1         -1.1655   -0.7004    0.0099 O.3       1 <0>        -0.2987
      8 C7         -1.0706   -2.1262    0.0013 C.3       1 <0>         0.0282
      9 C8         -2.4760   -2.7309    0.0120 C.3       1 <0>         0.0857
     10 H1         -3.0343   -2.3376    0.8615 H         1 <0>         0.1369
     11 C9         -2.3753   -4.2531    0.1286 C.3       1 <0>        -0.0429
     12 N1         -3.7247   -4.8337    0.1388 N.4       1 <0>        -0.5045
     13 C10        -3.6280   -6.2953    0.2508 C.3       1 <0>         0.0475
     14 C11        -5.0123   -6.8909    0.2613 C.ar      1 <0>        -0.1908
     15 C12        -5.5964   -7.2610    1.4582 C.ar      1 <0>        -0.0516
     16 C13        -6.8660   -7.8069    1.4687 C.ar      1 <0>        -0.0963
     17 C14        -7.5537   -7.9840    0.2812 C.ar      1 <0>        -0.0360
     18 C15        -6.9709   -7.6148   -0.9170 C.ar      1 <0>        -0.1221
     19 C16        -5.7013   -7.0621   -0.9272 C.ar      1 <0>         0.1313
     20 F1         -5.1330   -6.6959   -2.0968 F         1 <0>        -0.1248
     21 Br1        -9.2906   -8.7316    0.2970 Br        1 <0>         0.0031
     22 O2         -3.1507   -2.3896   -1.2006 O.3       1 <0>        -0.5429
     23 F2          3.5391    2.1053   -0.0204 F         1 <0>        -0.1334
     24 H2         -0.9590    1.9103    0.0260 H         1 <0>         0.1447
     25 H3          1.1562    3.1691    0.0077 H         1 <0>         0.1489
     26 H4          3.3422   -0.4970   -0.0333 H         1 <0>         0.1424
     27 H5          1.2293   -1.7598   -0.0211 H         1 <0>         0.1343
     28 H6         -0.5427   -2.4498   -0.8957 H         1 <0>         0.0785
     29 H7         -0.5250   -2.4593    0.8841 H         1 <0>         0.0836
     30 H8         -1.8170   -4.6465   -0.7210 H         1 <0>         0.1419
     31 H9         -1.8607   -4.5135    1.0535 H         1 <0>         0.1502
     32 H10        -4.2415   -4.4697    0.9252 H         1 <0>         0.4320
     33 H11        -3.0697   -6.6886   -0.5988 H         1 <0>         0.1439
     34 H12        -3.1134   -6.5556    1.1757 H         1 <0>         0.1499
     35 H13        -5.0602   -7.1239    2.3856 H         1 <0>         0.1554
     36 H14        -7.3215   -8.0958    2.4044 H         1 <0>         0.1560
     37 H15        -7.5072   -7.7535   -1.8441 H         1 <0>         0.1605
     38 H16        -2.7090   -2.7084   -1.9996 H         1 <0>         0.3910
     39 H17        -4.2011   -4.5928   -0.7174 H         1 <0>         0.4335
@<TRIPOS>BOND
     1    1    6 ar
     2    1    2 ar
     3    1   24 1
     4    2    3 ar
     5    2   25 1
     6    3    4 ar
     7    3   23 1
     8    4    5 ar
     9    4   26 1
    10    5    6 ar
    11    5   27 1
    12    6    7 1
    13    7    8 1
    14    8    9 1
    15    8   28 1
    16    8   29 1
    17    9   10 1
    18    9   11 1
    19    9   22 1
    20   11   12 1
    21   11   30 1
    22   11   31 1
    23   12   13 1
    24   12   32 1
    25   12   39 1
    26   13   14 1
    27   13   33 1
    28   13   34 1
    29   14   19 ar
    30   14   15 ar
    31   15   16 ar
    32   15   35 1
    33   16   17 ar
    34   16   36 1
    35   17   18 ar
    36   17   21 1
    37   18   19 ar
    38   18   37 1
    39   19   20 1
    40   22   38 1
@<TRIPOS>MOLECULE
ZINC32008783
   34    34     0     0     0
SMALL
USER_CHARGES
(2S)-3-methyl-1-(methylamino)-2-phenyl-butan-2-ol
@<TRIPOS>ATOM
      1 C1          4.4015    4.4150   -0.9472 C.3       1 <0>        -0.1566
      2 C2          3.2023    3.4856   -0.7496 C.3       1 <0>        -0.0929
      3 C3          2.5592    3.1875   -2.1055 C.3       1 <0>        -0.1490
      4 C4          3.6709    2.1777   -0.1087 C.3       1 <0>         0.1834
      5 C5          4.2192    2.4633    1.2908 C.3       1 <0>        -0.0303
      6 N1          5.4001    3.3308    1.1864 N.4       1 <0>        -0.5665
      7 C6          5.9548    3.6268    2.5140 C.3       1 <0>        -0.0511
      8 C7          2.5090    1.2232   -0.0079 C.ar      1 <0>        -0.1299
      9 C8          1.4148    1.5463    0.7726 C.ar      1 <0>        -0.1141
     10 C9          0.3487    0.6712    0.8643 C.ar      1 <0>        -0.1129
     11 C10         0.3775   -0.5278    0.1770 C.ar      1 <0>        -0.1032
     12 C11         1.4725   -0.8517   -0.6020 C.ar      1 <0>        -0.1124
     13 C12         2.5383    0.0238   -0.6945 C.ar      1 <0>        -0.1002
     14 O1          4.6981    1.5945   -0.9129 O.3       1 <0>        -0.5746
     15 H1          4.8638    4.6293    0.0276 H         1 <0>         0.0564
     16 H2          4.0646    5.3553   -1.4079 H         1 <0>         0.0992
     17 H3          5.1382    3.9285   -1.6034 H         1 <0>         0.0997
     18 H4          2.4655    3.9721   -0.0934 H         1 <0>         0.0980
     19 H5          1.6970    2.5193   -1.9634 H         1 <0>         0.0678
     20 H6          3.2959    2.7010   -2.7617 H         1 <0>         0.0720
     21 H7          2.2223    4.1279   -2.5662 H         1 <0>         0.0658
     22 H8          3.4469    2.9659    1.8916 H         1 <0>         0.1315
     23 H9          4.5014    1.5164    1.7744 H         1 <0>         0.1270
     24 H10         6.1723    2.8282    0.5855 H         1 <0>         0.4444
     25 H11         6.8359    4.2765    2.4067 H         1 <0>         0.1223
     26 H12         6.2491    2.6880    3.0060 H         1 <0>         0.1121
     27 H13         5.1947    4.1375    3.1234 H         1 <0>         0.1143
     28 H14         1.3921    2.4832    1.3093 H         1 <0>         0.1200
     29 H15        -0.5088    0.9263    1.4694 H         1 <0>         0.1293
     30 H16        -0.4552   -1.2117    0.2490 H         1 <0>         0.1299
     31 H17         1.4953   -1.7887   -1.1387 H         1 <0>         0.1302
     32 H18         3.3936   -0.2291   -1.3034 H         1 <0>         0.1314
     33 H19         5.1608    0.6438   -0.6097 H         1 <0>         0.4230
     34 H20         5.1179    4.2777    0.7029 H         1 <0>         0.4359
@<TRIPOS>BOND
     1    1    2 1
     2    1   15 1
     3    1   16 1
     4    1   17 1
     5    2    3 1
     6    2    4 1
     7    2   18 1
     8    3   19 1
     9    3   20 1
    10    3   21 1
    11    4    5 1
    12    4    8 1
    13    4   14 1
    14    5    6 1
    15    5   22 1
    16    5   23 1
    17    6    7 1
    18    6   24 1
    19    6   34 1
    20    7   25 1
    21    7   26 1
    22    7   27 1
    23    8   13 ar
    24    8    9 ar
    25    9   10 ar
    26    9   28 1
    27   10   11 ar
    28   10   29 1
    29   11   12 ar
    30   11   30 1
    31   12   13 ar
    32   12   31 1
    33   13   32 1
    34   14   33 1
@<TRIPOS>MOLECULE
ZINC38121964
   40    40     0     0     0
SMALL
USER_CHARGES

@<TRIPOS>ATOM
      1 C1         -0.0726    1.5175   -0.5867 C.3       1 <0>        -0.1522
      2 C2         -0.0354    0.0188   -0.2814 C.3       1 <0>        -0.1168
      3 C3          0.5920   -0.2058    1.0958 C.3       1 <0>        -0.1711
      4 C4         -1.4602   -0.5389   -0.2899 C.3       1 <0>        -0.0270
      5 N1         -1.4164   -1.9969   -0.1159 N.4       1 <0>        -0.5162
      6 C5         -2.7845   -2.5158    0.0145 C.3       1 <0>         0.0698
      7 C6         -3.6452   -1.9448   -1.1286 C.3       1 <0>        -0.1378
      8 C7         -3.4275   -2.6798   -2.4650 C.3       1 <0>        -0.1355
      9 C8         -1.9776   -2.9884   -2.7228 C.3       1 <0>        -0.1288
     10 C9         -1.6834   -4.4161   -2.2186 C.3       1 <0>        -0.1457
     11 C10        -1.4851   -4.4657   -0.7776 C.3       1 <0>        -0.1400
     12 C11        -2.7378   -4.0198    0.0040 C.3       1 <0>        -0.1324
     13 C12        -3.3655   -2.0479    1.3503 C.3       1 <0>         0.0641
     14 O1         -4.6976   -2.5458    1.4909 O.3       1 <0>        -0.5508
     15 H1          0.9424    1.9148   -0.5807 H         1 <0>         0.0790
     16 H2         -0.5196    1.6775   -1.5679 H         1 <0>         0.0683
     17 H3         -0.6671    2.0280    0.1710 H         1 <0>         0.0684
     18 H4          0.5590   -0.4917   -1.0391 H         1 <0>         0.0924
     19 H5          0.6184   -1.2736    1.3133 H         1 <0>         0.0501
     20 H6          1.6070    0.1915    1.1018 H         1 <0>         0.0856
     21 H7         -0.0025    0.3047    1.8535 H         1 <0>         0.0734
     22 H8         -2.0299   -0.0927    0.5252 H         1 <0>         0.1322
     23 H9         -1.9380   -0.3006   -1.2402 H         1 <0>         0.1393
     24 H10        -0.9719   -2.4181   -0.9178 H         1 <0>         0.4331
     25 H11        -4.6962   -2.0244   -0.8507 H         1 <0>         0.1178
     26 H12        -3.3981   -0.8916   -1.2623 H         1 <0>         0.0867
     27 H13        -3.9895   -3.6136   -2.4494 H         1 <0>         0.0846
     28 H14        -3.8051   -2.0567   -3.2757 H         1 <0>         0.0852
     29 H15        -1.7750   -2.9288   -3.7922 H         1 <0>         0.0946
     30 H16        -1.3506   -2.2749   -2.1882 H         1 <0>         0.0401
     31 H17        -2.5202   -5.0630   -2.4821 H         1 <0>         0.0885
     32 H18        -0.7846   -4.7864   -2.7115 H         1 <0>         0.0819
     33 H19        -1.2350   -5.4870   -0.4906 H         1 <0>         0.1010
     34 H20        -0.6531   -3.8129   -0.5131 H         1 <0>         0.0439
     35 H21        -2.6826   -4.3915    1.0272 H         1 <0>         0.0974
     36 H22        -3.6314   -4.4105   -0.4828 H         1 <0>         0.1162
     37 H23        -2.7489   -2.4243    2.1665 H         1 <0>         0.0692
     38 H24        -3.3800   -0.9583    1.3785 H         1 <0>         0.0675
     39 H25        -5.1289   -2.2875    2.3169 H         1 <0>         0.4051
     40 H26        -0.8911   -2.2207    0.7160 H         1 <0>         0.4187
@<TRIPOS>BOND
     1    1    2 1
     2    1   15 1
     3    1   16 1
     4    1   17 1
     5    2    3 1
     6    2    4 1
     7    2   18 1
     8    3   19 1
     9    3   20 1
    10    3   21 1
    11    4    5 1
    12    4   22 1
    13    4   23 1
    14    5    6 1
    15    5   24 1
    16    5   40 1
    17    6   12 1
    18    6    7 1
    19    6   13 1
    20    7    8 1
    21    7   25 1
    22    7   26 1
    23    8    9 1
    24    8   27 1
    25    8   28 1
    26    9   10 1
    27    9   29 1
    28    9   30 1
    29   10   11 1
    30   10   31 1
    31   10   32 1
    32   11   12 1
    33   11   33 1
    34   11   34 1
    35   12   35 1
    36   12   36 1
    37   13   14 1
    38   13   37 1
    39   13   38 1
    40   14   39 1
@<TRIPOS>MOLECULE
ZINC42579366
   37    37     0     0     0
SMALL
USER_CHARGES

@<TRIPOS>ATOM
      1 C1         -0.0187    1.5258    0.0104 C.3       1 <0>        -0.1591
      2 C2          0.0021   -0.0041    0.0020 C.3       1 <0>        -0.1352
      3 C3         -1.4333   -0.5336    0.0129 C.3       1 <0>        -0.1063
      4 H1         -1.9862   -0.1019   -0.8214 H         1 <0>         0.0976
      5 C4         -2.1103   -0.1453    1.3289 C.3       1 <0>        -0.1137
      6 C5         -3.5456   -0.6748    1.3397 C.3       1 <0>        -0.1320
      7 C6         -3.5280   -2.1989    1.2056 C.3       1 <0>        -0.1169
      8 C7         -2.8510   -2.5872   -0.1103 C.3       1 <0>        -0.1419
      9 C8         -1.4157   -2.0577   -0.1212 C.3       1 <0>         0.0286
     10 H2         -0.8628   -2.4894    0.7131 H         1 <0>         0.1425
     11 N1         -0.7657   -2.4306   -1.3847 N.4       1 <0>        -0.4955
     12 C9         -0.6411   -3.8924   -1.4585 C.3       1 <0>        -0.0334
     13 C10         0.0256   -4.2750   -2.7547 C.2       1 <0>         0.4954
     14 O1          0.3638   -3.4145   -3.5397 O.2       1 <0>        -0.5274
     15 N2          0.2462   -5.5732   -3.0416 N.am      1 <0>        -0.7063
     16 C11         0.8944   -5.9451   -4.3016 C.3       1 <0>         0.0777
     17 H3          1.0039    1.9031    0.0027 H         1 <0>         0.0668
     18 H4         -0.5459    1.8868   -0.8726 H         1 <0>         0.0611
     19 H5         -0.5289    1.8773    0.9072 H         1 <0>         0.0675
     20 H6          0.5123   -0.3556   -0.8948 H         1 <0>         0.0558
     21 H7          0.5293   -0.3651    0.8851 H         1 <0>         0.0803
     22 H8         -1.5574   -0.5770    2.1631 H         1 <0>         0.0756
     23 H9         -2.1228    0.9405    1.4244 H         1 <0>         0.0888
     24 H10        -4.0279   -0.3982    2.2772 H         1 <0>         0.0807
     25 H11        -4.0985   -0.2431    0.5055 H         1 <0>         0.0710
     26 H12        -2.9751   -2.6306    2.0399 H         1 <0>         0.0754
     27 H13        -4.5506   -2.5761    1.2134 H         1 <0>         0.0858
     28 H14        -2.8385   -3.6730   -0.2059 H         1 <0>         0.0867
     29 H15        -3.4039   -2.1555   -0.9446 H         1 <0>         0.0894
     30 H16        -1.3220   -2.1009   -2.1592 H         1 <0>         0.4327
     31 H17        -0.0401   -4.2486   -0.6218 H         1 <0>         0.1620
     32 H18        -1.6320   -4.3443   -1.4124 H         1 <0>         0.1625
     33 H19        -0.0243   -6.2614   -2.4137 H         1 <0>         0.4132
     34 H20         0.9868   -7.0298   -4.3564 H         1 <0>         0.0922
     35 H21         0.2934   -5.5890   -5.1383 H         1 <0>         0.0731
     36 H22         1.8852   -5.4933   -4.3477 H         1 <0>         0.0731
     37 H23         0.1515   -2.0123   -1.4274 H         1 <0>         0.4327
@<TRIPOS>BOND
     1    1    2 1
     2    1   17 1
     3    1   18 1
     4    1   19 1
     5    2    3 1
     6    2   20 1
     7    2   21 1
     8    3    4 1
     9    3    9 1
    10    3    5 1
    11    5    6 1
    12    5   22 1
    13    5   23 1
    14    6    7 1
    15    6   24 1
    16    6   25 1
    17    7    8 1
    18    7   26 1
    19    7   27 1
    20    8    9 1
    21    8   28 1
    22    8   29 1
    23    9   10 1
    24    9   11 1
    25   11   12 1
    26   11   30 1
    27   11   37 1
    28   12   13 1
    29   12   31 1
    30   12   32 1
    31   13   14 2
    32   13   15 am
    33   15   16 1
    34   15   33 1
    35   16   34 1
    36   16   35 1
    37   16   36 1
@<TRIPOS>MOLECULE
ZINC53760272
   40    40     0     0     0
SMALL
USER_CHARGES

@<TRIPOS>ATOM
      1 C1         -2.3289    0.3054   -0.3489 C.3       1 <0>        -0.1589
      2 C2         -1.5819   -1.0201   -0.5095 C.3       1 <0>        -0.1376
      3 C3         -0.3441   -0.8054   -1.3828 C.3       1 <0>        -0.1064
      4 H1         -0.6415   -0.3565   -2.3306 H         1 <0>         0.1192
      5 C4          0.6333    0.1254   -0.6622 C.3       1 <0>        -0.1749
      6 C5          0.3338   -2.1514   -1.6465 C.3       1 <0>         0.0664
      7 C6         -0.6436   -3.0822   -2.3672 C.3       1 <0>        -0.1835
      8 C7          1.5715   -1.9367   -2.5199 C.3       1 <0>        -0.1345
      9 C8          2.2126   -3.2892   -2.8373 C.3       1 <0>        -0.1145
     10 C9          3.0234   -3.7681   -1.6291 C.3       1 <0>        -0.1659
     11 C10         3.7243   -5.0822   -1.9833 C.3       1 <0>         0.0573
     12 O1          4.5550   -4.8837   -3.1291 O.3       1 <0>        -0.3722
     13 C11         3.8448   -4.4809   -4.3019 C.3       1 <0>         0.0544
     14 C12         3.1487   -3.1427   -4.0409 C.3       1 <0>        -0.1498
     15 N1          0.7346   -2.7564   -0.3693 N.4       1 <0>        -0.6401
     16 H2         -1.6734    1.0370    0.1235 H         1 <0>         0.0638
     17 H3         -2.6349    0.6711   -1.3291 H         1 <0>         0.0649
     18 H4         -3.2108    0.1525    0.2732 H         1 <0>         0.0667
     19 H5         -1.2760   -1.3858    0.4707 H         1 <0>         0.0581
     20 H6         -2.2374   -1.7517   -0.9819 H         1 <0>         0.0821
     21 H7          0.9307   -0.3235    0.2855 H         1 <0>         0.0513
     22 H8          1.5151    0.2783   -1.2844 H         1 <0>         0.0752
     23 H9          0.1504    1.0843   -0.4744 H         1 <0>         0.0873
     24 H10        -0.9411   -2.6333   -3.3149 H         1 <0>         0.1084
     25 H11        -0.1607   -4.0411   -2.5550 H         1 <0>         0.0860
     26 H12        -1.5255   -3.2351   -1.7450 H         1 <0>         0.0867
     27 H13         1.2803   -1.4458   -3.4484 H         1 <0>         0.1154
     28 H14         2.2879   -1.3111   -1.9873 H         1 <0>         0.0952
     29 H15         1.4341   -4.0167   -3.0672 H         1 <0>         0.0911
     30 H16         3.7686   -3.0163   -1.3694 H         1 <0>         0.0907
     31 H17         2.3556   -3.9281   -0.7826 H         1 <0>         0.0452
     32 H18         4.3370   -5.4057   -1.1418 H         1 <0>         0.1018
     33 H19         2.9773   -5.8448   -2.2037 H         1 <0>         0.0558
     34 H20         4.5443   -4.3713   -5.1307 H         1 <0>         0.1039
     35 H21         3.0994   -5.2356   -4.5526 H         1 <0>         0.0554
     36 H22         2.5706   -2.8554   -4.9191 H         1 <0>         0.0842
     37 H23         3.8964   -2.3782   -3.8298 H         1 <0>         0.0799
     38 H24         0.0258   -2.5754    0.3257 H         1 <0>         0.4269
     39 H25         0.8425   -3.7525   -0.4881 H         1 <0>         0.4320
     40 H26         1.6107   -2.3567   -0.0681 H         1 <0>         0.4329
@<TRIPOS>BOND
     1    1    2 1
     2    1   16 1
     3    1   17 1
     4    1   18 1
     5    2    3 1
     6    2   19 1
     7    2   20 1
     8    3    4 1
     9    3    5 1
    10    3    6 1
    11    5   21 1
    12    5   22 1
    13    5   23 1
    14    6    7 1
    15    6    8 1
    16    6   15 1
    17    7   24 1
    18    7   25 1
    19    7   26 1
    20    8    9 1
    21    8   27 1
    22    8   28 1
    23    9   14 1
    24    9   10 1
    25    9   29 1
    26   10   11 1
    27   10   30 1
    28   10   31 1
    29   11   12 1
    30   11   32 1
    31   11   33 1
    32   12   13 1
    33   13   14 1
    34   13   34 1
    35   13   35 1
    36   14   36 1
    37   14   37 1
    38   15   38 1
    39   15   39 1
    40   15   40 1
@<TRIPOS>MOLECULE
ZINC62991294
   37    37     0     0     0
SMALL
USER_CHARGES

@<TRIPOS>ATOM
      1 C1         -0.0187    1.5258    0.0104 C.3       1 <0>        -0.1535
      2 C2          0.0021   -0.0041    0.0020 C.3       1 <0>        -0.0550
      3 C3          0.7421   -0.5109    1.2415 C.3       1 <0>        -0.1536
      4 C4         -1.4333   -0.5336    0.0129 C.3       1 <0>        -0.1722
      5 C5          0.7074   -0.4901   -1.2379 C.cat     1 <0>         0.5361
      6 N1          0.0810   -1.2375   -2.0872 N.pl3     1 <0>        -0.7381
      7 N2          2.0123   -0.1401   -1.4653 N.pl3     1 <0>        -0.6383
      8 C6          2.6980   -0.6126   -2.6706 C.3       1 <0>         0.1042
      9 H1          1.9951   -0.6695   -3.5017 H         1 <0>         0.1063
     10 C7          3.3251   -1.9983   -2.4130 C.3       1 <0>        -0.1439
     11 C8          4.6632   -1.9605   -3.1922 C.3       1 <0>        -0.1223
     12 C9          5.1484   -0.5068   -2.9680 C.3       1 <0>        -0.1502
     13 C10         3.8565    0.3365   -3.0242 C.3       1 <0>         0.0797
     14 H2          3.7162    0.7394   -4.0272 H         1 <0>         0.0896
     15 O1          3.9247    1.4011   -2.0734 O.3       1 <0>        -0.3940
     16 C11         4.4347    2.6248   -2.6068 C.3       1 <0>         0.0310
     17 H3          1.0039    1.9031    0.0027 H         1 <0>         0.0735
     18 H4         -0.5459    1.8868   -0.8726 H         1 <0>         0.0730
     19 H5         -0.5289    1.8773    0.9072 H         1 <0>         0.0963
     20 H6          0.2319   -0.1594    2.1383 H         1 <0>         0.0969
     21 H7          0.7568   -1.6008    1.2356 H         1 <0>         0.0740
     22 H8          1.7647   -0.1336    1.2338 H         1 <0>         0.0721
     23 H9         -1.9605   -0.1726   -0.8702 H         1 <0>         0.0754
     24 H10        -1.4185   -1.6235    0.0069 H         1 <0>         0.0758
     25 H11        -1.9435   -0.1821    0.9097 H         1 <0>         0.1025
     26 H12         0.5350   -1.5503   -2.8853 H         1 <0>         0.4254
     27 H13         2.4822    0.4205   -0.8282 H         1 <0>         0.4477
     28 H14         3.5077   -2.1424   -1.3481 H         1 <0>         0.0889
     29 H15         2.6801   -2.7869   -2.8005 H         1 <0>         0.0840
     30 H16         5.3738   -2.6737   -2.7744 H         1 <0>         0.0884
     31 H17         4.4985   -2.1536   -4.2522 H         1 <0>         0.0811
     32 H18         5.6255   -0.4100   -1.9927 H         1 <0>         0.0880
     33 H19         5.8340   -0.2069   -3.7605 H         1 <0>         0.0849
     34 H20         5.4451    2.4642   -2.9828 H         1 <0>         0.0538
     35 H21         3.7932    2.9615   -3.4212 H         1 <0>         0.0489
     36 H22         4.4548    3.3823   -1.8232 H         1 <0>         0.0971
     37 H23        -0.8429   -1.4853   -1.9262 H         1 <0>         0.4467
@<TRIPOS>BOND
     1    1    2 1
     2    1   17 1
     3    1   18 1
     4    1   19 1
     5    2    3 1
     6    2    4 1
     7    2    5 1
     8    3   20 1
     9    3   21 1
    10    3   22 1
    11    4   23 1
    12    4   24 1
    13    4   25 1
    14    5    6 2
    15    5    7 1
    16    6   26 1
    17    6   37 1
    18    7    8 1
    19    7   27 1
    20    8    9 1
    21    8   13 1
    22    8   10 1
    23   10   11 1
    24   10   28 1
    25   10   29 1
    26   11   12 1
    27   11   30 1
    28   11   31 1
    29   12   13 1
    30   12   32 1
    31   12   33 1
    32   13   14 1
    33   13   15 1
    34   15   16 1
    35   16   34 1
    36   16   35 1
    37   16   36 1
@<TRIPOS>MOLECULE
ZINC37228013
   38    38     0     0     0
SMALL
USER_CHARGES

@<TRIPOS>ATOM
      1 C1         -0.1664    1.5201   -0.3756 C.3       1 <0>        -0.1592
      2 C2         -0.2202   -0.0020   -0.2299 C.3       1 <0>        -0.1237
      3 C3          0.6655   -0.6481   -1.2971 C.3       1 <0>        -0.0945
      4 H1          0.3629   -0.2949   -2.2829 H         1 <0>         0.0951
      5 C4          2.1263   -0.2687   -1.0457 C.3       1 <0>        -0.1617
      6 C5          0.5152   -2.1693   -1.2321 C.3       1 <0>         0.0569
      7 H2         -0.5329   -2.4369   -1.3661 H         1 <0>         0.0740
      8 C6          0.9998   -2.6719    0.1293 C.3       1 <0>        -0.0032
      9 N1          0.9792   -4.1407    0.1447 N.4       1 <0>        -0.6401
     10 N2          1.3182   -2.7866   -2.2961 N.3       1 <0>        -0.5427
     11 C7          1.3907   -1.9134   -3.4746 C.3       1 <0>         0.0444
     12 C8          2.3495   -2.5194   -4.5019 C.3       1 <0>        -0.1214
     13 C9          1.8478   -3.9093   -4.9034 C.3       1 <0>        -0.1269
     14 C10         1.7352   -4.7839   -3.6516 C.3       1 <0>        -0.1208
     15 C11         0.7942   -4.1123   -2.6489 C.3       1 <0>         0.0379
     16 H3          0.8613    1.8611   -0.2500 H         1 <0>         0.0615
     17 H4         -0.5248    1.8033   -1.3653 H         1 <0>         0.0583
     18 H5         -0.7974    1.9804    0.3847 H         1 <0>         0.0614
     19 H6          0.1382   -0.2851    0.7598 H         1 <0>         0.0635
     20 H7         -1.2478   -0.3429   -0.3554 H         1 <0>         0.0659
     21 H8          2.7683   -0.8199   -1.7328 H         1 <0>         0.0749
     22 H9          2.2565    0.8015   -1.2061 H         1 <0>         0.0692
     23 H10         2.3947   -0.5175   -0.0190 H         1 <0>         0.0570
     24 H11         2.0167   -2.3210    0.3053 H         1 <0>         0.1437
     25 H12         0.3435   -2.2911    0.9119 H         1 <0>         0.1376
     26 H13         0.0768   -4.4676   -0.1667 H         1 <0>         0.4300
     27 H14         1.6958   -4.4936   -0.4716 H         1 <0>         0.4400
     28 H15         0.3989   -1.8165   -3.9163 H         1 <0>         0.0449
     29 H16         1.7527   -0.9296   -3.1759 H         1 <0>         0.1002
     30 H17         2.3911   -1.8790   -5.3829 H         1 <0>         0.0765
     31 H18         3.3447   -2.6038   -4.0653 H         1 <0>         0.0745
     32 H19         0.8693   -3.8210   -5.3753 H         1 <0>         0.0636
     33 H20         2.5509   -4.3624   -5.6023 H         1 <0>         0.0740
     34 H21         1.3380   -5.7613   -3.9252 H         1 <0>         0.0768
     35 H22         2.7208   -4.9039   -3.2017 H         1 <0>         0.0754
     36 H23         0.7230   -4.7255   -1.7506 H         1 <0>         0.0474
     37 H24        -0.1948   -4.0051   -3.0946 H         1 <0>         0.0565
     38 H25         1.1506   -4.4696    1.0831 H         1 <0>         0.4330
@<TRIPOS>BOND
     1    1    2 1
     2    1   16 1
     3    1   17 1
     4    1   18 1
     5    2    3 1
     6    2   19 1
     7    2   20 1
     8    3    4 1
     9    3    5 1
    10    3    6 1
    11    5   21 1
    12    5   22 1
    13    5   23 1
    14    6    7 1
    15    6    8 1
    16    6   10 1
    17    8    9 1
    18    8   24 1
    19    8   25 1
    20    9   26 1
    21    9   27 1
    22    9   38 1
    23   10   15 1
    24   10   11 1
    25   11   12 1
    26   11   28 1
    27   11   29 1
    28   12   13 1
    29   12   30 1
    30   12   31 1
    31   13   14 1
    32   13   32 1
    33   13   33 1
    34   14   15 1
    35   14   34 1
    36   14   35 1
    37   15   36 1
    38   15   37 1
@<TRIPOS>MOLECULE
ZINC37907121
   31    32     0     0     0
SMALL
USER_CHARGES

@<TRIPOS>ATOM
      1 C1          0.0985    1.4217   -0.1867 C.3       1 <0>        -0.1771
      2 C2          0.0298   -0.0993   -0.0365 C.3       1 <0>         0.1271
      3 H1          0.4419   -0.5715   -0.9283 H         1 <0>         0.1577
      4 C3          0.8280   -0.5215    1.1700 C.2       1 <0>         0.0223
      5 C4          2.2064   -0.7569    1.2001 C.2       1 <0>        -0.2495
      6 C5          2.5402   -1.1149    2.4616 C.2       1 <0>         0.0871
      7 N1          1.4130   -1.1064    3.2035 N.pl3     1 <0>        -0.4482
      8 H2          1.3492   -1.3224    4.1470 H         1 <0>         0.4525
      9 N2          0.3522   -0.7257    2.3716 N.2       1 <0>        -0.2973
     10 N3         -1.3699   -0.5118    0.1335 N.4       1 <0>        -0.5017
     11 C6         -2.1159   -0.2330   -1.1009 C.3       1 <0>         0.0556
     12 H3         -1.9938    0.8161   -1.3701 H         1 <0>         0.1409
     13 C7         -3.5996   -0.5332   -0.8788 C.3       1 <0>        -0.1799
     14 C8         -1.5806   -1.1151   -2.2306 C.3       1 <0>        -0.2086
     15 C9         -0.8239   -0.4252   -3.3674 C.3       1 <0>        -0.1702
     16 C10        -2.2323   -0.9726   -3.6075 C.3       1 <0>        -0.1456
     17 H4          1.1414    1.7376   -0.2117 H         1 <0>         0.1107
     18 H5         -0.3931    1.7179   -1.1134 H         1 <0>         0.0890
     19 H6         -0.4039    1.8933    0.6578 H         1 <0>         0.0831
     20 H7          2.8844   -0.6689    0.3640 H         1 <0>         0.1614
     21 H8          3.5312   -1.3633    2.8119 H         1 <0>         0.1934
     22 H9         -1.4073   -1.5002    0.3332 H         1 <0>         0.4287
     23 H10        -3.7314   -1.6000   -0.6980 H         1 <0>         0.0838
     24 H11        -3.9590    0.0285   -0.0166 H         1 <0>         0.0819
     25 H12        -4.1656   -0.2421   -1.7637 H         1 <0>         0.1072
     26 H13        -1.2456   -2.1087   -1.9327 H         1 <0>         0.1260
     27 H14        -0.7074    0.6570   -3.3105 H         1 <0>         0.1066
     28 H15         0.0093   -0.9649   -3.8176 H         1 <0>         0.1116
     29 H16        -2.3257   -1.8723   -4.2156 H         1 <0>         0.1126
     30 H17        -3.0425   -0.2504   -3.7085 H         1 <0>         0.1079
     31 H18        -1.7813    0.0017    0.8984 H         1 <0>         0.4311
@<TRIPOS>BOND
     1    1    2 1
     2    1   17 1
     3    1   18 1
     4    1   19 1
     5    2    3 1
     6    2    4 1
     7    2   10 1
     8    4    9 2
     9    4    5 1
    10    5    6 2
    11    5   20 1
    12    6    7 1
    13    6   21 1
    14    7    8 1
    15    7    9 1
    16   10   11 1
    17   10   22 1
    18   10   31 1
    19   11   12 1
    20   11   13 1
    21   11   14 1
    22   13   23 1
    23   13   24 1
    24   13   25 1
    25   14   16 1
    26   14   15 1
    27   14   26 1
    28   15   16 1
    29   15   27 1
    30   15   28 1
    31   16   29 1
    32   16   30 1
@<TRIPOS>MOLECULE
ZINC44399648
   29    28     0     0     0
SMALL
USER_CHARGES

@<TRIPOS>ATOM
      1 C1          1.8001    0.2140    0.6873 C.3       1 <0>        -0.1752
      2 C2          1.3009   -1.2318    0.7240 C.3       1 <0>        -0.1486
      3 C3         -0.2208   -1.2501    0.5659 C.3       1 <0>         0.0224
      4 H1         -0.4980   -0.7175   -0.3439 H         1 <0>         0.1459
      5 C4         -0.7071   -2.6981    0.4775 C.3       1 <0>        -0.1360
      6 C5         -2.2000   -2.7152    0.1432 C.3       1 <0>        -0.0823
      7 C6         -2.4553   -1.8536   -1.0950 C.3       1 <0>        -0.1594
      8 C7         -2.6438   -4.1527   -0.1354 C.3       1 <0>        -0.1481
      9 C8         -2.9939   -2.1566    1.3258 C.3       1 <0>        -0.1754
     10 N1         -0.8415   -0.5951    1.7251 N.4       1 <0>        -0.6468
     11 H2          2.8842    0.2270    0.7999 H         1 <0>         0.0844
     12 H3          1.5283    0.6681   -0.2656 H         1 <0>         0.0724
     13 H4          1.3435    0.7768    1.5014 H         1 <0>         0.0516
     14 H5          1.7575   -1.7947   -0.0901 H         1 <0>         0.1120
     15 H6          1.5726   -1.6860    1.6769 H         1 <0>         0.0885
     16 H7         -0.1539   -3.2201   -0.3034 H         1 <0>         0.1142
     17 H8         -0.5430   -3.1955    1.4334 H         1 <0>         0.0913
     18 H9         -1.8898   -2.2516   -1.9376 H         1 <0>         0.0717
     19 H10        -3.5189   -1.8658   -1.3332 H         1 <0>         0.0730
     20 H11        -2.1392   -0.8295   -0.8965 H         1 <0>         0.0503
     21 H12        -2.4619   -4.7666    0.7467 H         1 <0>         0.0631
     22 H13        -3.7074   -4.1649   -0.3736 H         1 <0>         0.0679
     23 H14        -2.0782   -4.5507   -0.9780 H         1 <0>         0.0655
     24 H15        -3.1082   -1.0788    1.2100 H         1 <0>         0.0554
     25 H16        -3.9775   -2.6251    1.3569 H         1 <0>         0.0916
     26 H17        -2.4614   -2.3679    2.2531 H         1 <0>         0.0619
     27 H18        -1.8314   -0.4891    1.5614 H         1 <0>         0.4299
     28 H19        -0.6953   -1.1596    2.5485 H         1 <0>         0.4303
     29 H20        -0.4240    0.3133    1.8616 H         1 <0>         0.4283
@<TRIPOS>BOND
     1    1    2 1
     2    1   11 1
     3    1   12 1
     4    1   13 1
     5    2    3 1
     6    2   14 1
     7    2   15 1
     8    3    4 1
     9    3    5 1
    10    3   10 1
    11    5    6 1
    12    5   16 1
    13    5   17 1
    14    6    7 1
    15    6    8 1
    16    6    9 1
    17    7   18 1
    18    7   19 1
    19    7   20 1
    20    8   21 1
    21    8   22 1
    22    8   23 1
    23    9   24 1
    24    9   25 1
    25    9   26 1
    26   10   27 1
    27   10   28 1
    28   10   29 1
@<TRIPOS>MOLECULE
ZINC53819078
   30    30     0     0     0
SMALL
USER_CHARGES

@<TRIPOS>ATOM
      1 C1         -0.0187    1.5258    0.0104 C.3       1 <0>        -0.1605
      2 C2          0.0021   -0.0041    0.0020 C.3       1 <0>        -0.1215
      3 C3          0.7421   -0.5109    1.2415 C.3       1 <0>        -0.1029
      4 H1          0.2852   -0.0874    2.1360 H         1 <0>         0.0631
      5 C4          2.2100   -0.0858    1.1685 C.3       1 <0>        -0.1650
      6 C5          0.6554   -2.0374    1.2986 C.3       1 <0>        -0.1401
      7 C6          1.2863   -2.5357    2.6004 C.3       1 <0>         0.0608
      8 H2          2.3046   -2.1549    2.6796 H         1 <0>         0.1489
      9 C7          1.3124   -4.0655    2.6015 C.3       1 <0>        -0.1851
     10 C8          0.3979   -4.7868    3.5936 C.3       1 <0>        -0.1860
     11 C9          1.9098   -4.7609    3.8264 C.3       1 <0>        -0.1706
     12 N1          0.4948   -2.0585    3.7422 N.4       1 <0>        -0.6407
     13 H3          1.0039    1.9031    0.0027 H         1 <0>         0.0606
     14 H4         -0.5459    1.8868   -0.8726 H         1 <0>         0.0629
     15 H5         -0.5289    1.8773    0.9072 H         1 <0>         0.0544
     16 H6         -1.0205   -0.3814    0.0098 H         1 <0>         0.0674
     17 H7          0.5123   -0.3556   -0.8948 H         1 <0>         0.0723
     18 H8          2.2717    1.0017    1.1279 H         1 <0>         0.0730
     19 H9          2.7372   -0.4469    2.0516 H         1 <0>         0.0519
     20 H10         2.6669   -0.5093    0.2741 H         1 <0>         0.0696
     21 H11        -0.3900   -2.3436    1.2611 H         1 <0>         0.0919
     22 H12         1.1896   -2.4636    0.4495 H         1 <0>         0.1150
     23 H13         1.4703   -4.5337    1.6300 H         1 <0>         0.1459
     24 H14        -0.2223   -4.1715    4.2455 H         1 <0>         0.0901
     25 H15        -0.0461   -5.7298    3.2748 H         1 <0>         0.1214
     26 H16         2.4605   -5.6869    3.6608 H         1 <0>         0.1189
     27 H17         2.2844   -4.1286    4.6314 H         1 <0>         0.1021
     28 H18        -0.4478   -2.4110    3.6688 H         1 <0>         0.4335
     29 H19         0.9109   -2.3872    4.6006 H         1 <0>         0.4335
     30 H20         0.4776   -1.0497    3.7414 H         1 <0>         0.4348
@<TRIPOS>BOND
     1    1    2 1
     2    1   13 1
     3    1   14 1
     4    1   15 1
     5    2    3 1
     6    2   16 1
     7    2   17 1
     8    3    4 1
     9    3    5 1
    10    3    6 1
    11    5   18 1
    12    5   19 1
    13    5   20 1
    14    6    7 1
    15    6   21 1
    16    6   22 1
    17    7    8 1
    18    7    9 1
    19    7   12 1
    20    9   11 1
    21    9   10 1
    22    9   23 1
    23   10   11 1
    24   10   24 1
    25   10   25 1
    26   11   26 1
    27   11   27 1
    28   12   28 1
    29   12   29 1
    30   12   30 1
@<TRIPOS>MOLECULE
ZINC62989163
   36    36     0     0     0
SMALL
USER_CHARGES

@<TRIPOS>ATOM
      1 C1         -0.0187    1.5258    0.0104 C.3       1 <0>        -0.1580
      2 C2          0.0021   -0.0041    0.0020 C.3       1 <0>        -0.0982
      3 H1          0.5123   -0.3556   -0.8948 H         1 <0>         0.1059
      4 C3         -1.4333   -0.5336    0.0129 C.3       1 <0>        -0.1210
      5 C4         -1.4126   -2.0635    0.0045 C.3       1 <0>        -0.1287
      6 C5         -0.6726   -2.5703    1.2440 C.3       1 <0>        -0.1225
      7 C6          0.7628   -2.0407    1.2331 C.3       1 <0>        -0.1411
      8 C7          0.7421   -0.5109    1.2415 C.3       1 <0>         0.1124
      9 H2          1.7647   -0.1336    1.2338 H         1 <0>         0.0991
     10 N1          0.0564   -0.0384    2.4469 N.pl3     1 <0>        -0.6515
     11 C8          0.7492    0.0953    3.6212 C.cat     1 <0>         0.5341
     12 N2          2.0086   -0.1954    3.6657 N.pl3     1 <0>        -0.7347
     13 C9          0.0438    0.5813    4.8611 C.3       1 <0>        -0.0895
     14 C10        -0.5215   -0.6155    5.6285 C.3       1 <0>        -0.1566
     15 C11         1.0355    1.3348    5.7498 C.3       1 <0>        -0.1679
     16 H3          1.0039    1.9031    0.0027 H         1 <0>         0.0617
     17 H4         -0.5459    1.8868   -0.8726 H         1 <0>         0.0745
     18 H5         -0.5289    1.8773    0.9072 H         1 <0>         0.0535
     19 H6         -1.9435   -0.1821    0.9097 H         1 <0>         0.0582
     20 H7         -1.9605   -0.1726   -0.8702 H         1 <0>         0.0832
     21 H8         -2.4352   -2.4408    0.0122 H         1 <0>         0.0751
     22 H9         -0.9024   -2.4150   -0.8923 H         1 <0>         0.0733
     23 H10        -1.1828   -2.2188    2.1408 H         1 <0>         0.0601
     24 H11        -0.6578   -3.6602    1.2380 H         1 <0>         0.0779
     25 H12         1.2900   -2.4018    2.1162 H         1 <0>         0.0684
     26 H13         1.2730   -2.3923    0.3363 H         1 <0>         0.0985
     27 H14        -0.8882    0.1796    2.4135 H         1 <0>         0.4384
     28 H15         2.4991   -0.1007    4.4971 H         1 <0>         0.4460
     29 H16        -0.7701    1.2488    4.5780 H         1 <0>         0.1313
     30 H17         0.2925   -1.2829    5.9115 H         1 <0>         0.0726
     31 H18        -1.0317   -0.2640    6.5252 H         1 <0>         0.0974
     32 H19        -1.2280   -1.1522    4.9953 H         1 <0>         0.0733
     33 H20         1.4383    2.1874    5.2031 H         1 <0>         0.0768
     34 H21         0.5253    1.6863    6.6466 H         1 <0>         0.1004
     35 H22         1.8495    0.6673    6.0329 H         1 <0>         0.0697
     36 H23         2.4626   -0.5082    2.8676 H         1 <0>         0.4278
@<TRIPOS>BOND
     1    1    2 1
     2    1   16 1
     3    1   17 1
     4    1   18 1
     5    2    3 1
     6    2    8 1
     7    2    4 1
     8    4    5 1
     9    4   19 1
    10    4   20 1
    11    5    6 1
    12    5   21 1
    13    5   22 1
    14    6    7 1
    15    6   23 1
    16    6   24 1
    17    7    8 1
    18    7   25 1
    19    7   26 1
    20    8    9 1
    21    8   10 1
    22   10   11 1
    23   10   27 1
    24   11   12 2
    25   11   13 1
    26   12   28 1
    27   12   36 1
    28   13   14 1
    29   13   15 1
    30   13   29 1
    31   14   30 1
    32   14   31 1
    33   14   32 1
    34   15   33 1
    35   15   34 1
    36   15   35 1
@<TRIPOS>MOLECULE
ZINC36827657
   36    36     0     0     0
SMALL
USER_CHARGES

@<TRIPOS>ATOM
      1 C1         -0.0187    1.5258    0.0104 C.3       1 <0>        -0.1553
      2 C2          0.0021   -0.0041    0.0020 C.3       1 <0>        -0.1043
      3 C3         -1.4333   -0.5336    0.0129 C.3       1 <0>        -0.1288
      4 C4         -1.4126   -2.0635    0.0045 C.3       1 <0>        -0.1321
      5 C5         -0.6726   -2.5703    1.2440 C.3       1 <0>         0.0864
      6 C6          0.7628   -2.0407    1.2331 C.3       1 <0>        -0.1380
      7 C7          0.7421   -0.5109    1.2415 C.3       1 <0>        -0.1276
      8 C8         -0.6521   -4.0772    1.2357 C.2       1 <0>         0.4441
      9 O1         -0.7451   -4.6769    0.1909 O.2       1 <0>        -0.4407
     10 O2         -0.5307   -4.7531    2.3890 O.3       1 <0>        -0.3560
     11 C9         -0.5185   -6.1796    2.3067 C.3       1 <0>         0.0839
     12 C10         0.9214   -6.6685    2.1380 C.3       1 <0>        -0.1778
     13 C11        -1.1106   -6.7695    3.5883 C.3       1 <0>        -0.1550
     14 N1         -1.3602   -2.0966    2.4526 N.4       1 <0>        -0.6298
     15 H1          1.0039    1.9031    0.0027 H         1 <0>         0.0661
     16 H2         -0.5459    1.8868   -0.8726 H         1 <0>         0.0663
     17 H3         -0.5289    1.8773    0.9072 H         1 <0>         0.0579
     18 H4          0.5123   -0.3556   -0.8948 H         1 <0>         0.0907
     19 H5         -1.9435   -0.1821    0.9097 H         1 <0>         0.0628
     20 H6         -1.9605   -0.1726   -0.8702 H         1 <0>         0.1025
     21 H7         -2.4352   -2.4408    0.0122 H         1 <0>         0.0984
     22 H8         -0.9024   -2.4150   -0.8923 H         1 <0>         0.1262
     23 H9          1.2900   -2.4018    2.1162 H         1 <0>         0.1028
     24 H10         1.2730   -2.3923    0.3363 H         1 <0>         0.1208
     25 H11         1.7647   -0.1336    1.2338 H         1 <0>         0.1026
     26 H12         0.2319   -0.1594    2.1383 H         1 <0>         0.0641
     27 H13        -1.1134   -6.4993    1.4511 H         1 <0>         0.0932
     28 H14         0.9306   -7.7567    2.0753 H         1 <0>         0.0873
     29 H15         1.3431   -6.2483    1.2250 H         1 <0>         0.0633
     30 H16         1.5162   -6.3489    2.9937 H         1 <0>         0.0721
     31 H17        -2.1364   -6.4212    3.7085 H         1 <0>         0.0670
     32 H18        -1.1013   -7.8576    3.5256 H         1 <0>         0.0914
     33 H19        -0.5157   -6.4498    4.4440 H         1 <0>         0.0733
     34 H20        -2.3068   -2.4458    2.4598 H         1 <0>         0.4391
     35 H21        -0.8721   -2.4308    3.2700 H         1 <0>         0.4433
     36 H22        -1.3738   -1.0877    2.4582 H         1 <0>         0.4395
@<TRIPOS>BOND
     1    1    2 1
     2    1   15 1
     3    1   16 1
     4    1   17 1
     5    2    7 1
     6    2    3 1
     7    2   18 1
     8    3    4 1
     9    3   19 1
    10    3   20 1
    11    4    5 1
    12    4   21 1
    13    4   22 1
    14    5    6 1
    15    5    8 1
    16    5   14 1
    17    6    7 1
    18    6   23 1
    19    6   24 1
    20    7   25 1
    21    7   26 1
    22    8    9 2
    23    8   10 1
    24   10   11 1
    25   11   12 1
    26   11   13 1
    27   11   27 1
    28   12   28 1
    29   12   29 1
    30   12   30 1
    31   13   31 1
    32   13   32 1
    33   13   33 1
    34   14   34 1
    35   14   35 1
    36   14   36 1
@<TRIPOS>MOLECULE
ZINC40951329
   39    39     0     0     0
SMALL
USER_CHARGES

@<TRIPOS>ATOM
      1 C1         -0.0187    1.5258    0.0104 C.3       1 <0>        -0.1498
      2 C2          0.0021   -0.0041    0.0020 C.3       1 <0>        -0.0892
      3 H1          0.5123   -0.3556   -0.8948 H         1 <0>         0.0775
      4 C3         -1.4333   -0.5336    0.0129 C.3       1 <0>        -0.1316
      5 C4         -1.4126   -2.0635    0.0045 C.3       1 <0>         0.0866
      6 H2         -0.9024   -2.4150   -0.8923 H         1 <0>         0.0960
      7 C5         -0.6726   -2.5703    1.2440 C.3       1 <0>        -0.1056
      8 C6          0.7628   -2.0407    1.2331 C.3       1 <0>        -0.0590
      9 C7          0.7421   -0.5109    1.2415 C.3       1 <0>        -0.1119
     10 C8          1.4790   -2.5342   -0.0257 C.3       1 <0>        -0.1526
     11 C9          1.5028   -2.5476    2.4727 C.3       1 <0>        -0.1442
     12 O1         -2.7532   -2.5581    0.0146 O.3       1 <0>        -0.3233
     13 C10        -3.3363   -2.7626   -1.1770 C.2       1 <0>         0.4499
     14 O2         -2.7286   -2.5294   -2.1949 O.2       1 <0>        -0.4872
     15 C11        -4.7489   -3.2831   -1.2452 C.3       1 <0>         0.0389
     16 H3         -4.8921   -4.0468   -0.4807 H         1 <0>         0.1794
     17 C12        -5.7285   -2.1324   -1.0062 C.3       1 <0>        -0.1822
     18 N1         -4.9925   -3.8661   -2.5714 N.4       1 <0>        -0.6241
     19 H4          1.0039    1.9031    0.0027 H         1 <0>         0.0630
     20 H5         -0.5459    1.8868   -0.8726 H         1 <0>         0.0558
     21 H6         -0.5289    1.8773    0.9072 H         1 <0>         0.0580
     22 H7         -1.9435   -0.1821    0.9097 H         1 <0>         0.0786
     23 H8         -1.9605   -0.1726   -0.8702 H         1 <0>         0.0668
     24 H9         -1.1828   -2.2188    2.1408 H         1 <0>         0.0810
     25 H10        -0.6578   -3.6602    1.2380 H         1 <0>         0.0748
     26 H11         1.7647   -0.1336    1.2338 H         1 <0>         0.0741
     27 H12         0.2319   -0.1594    2.1383 H         1 <0>         0.0695
     28 H13         0.9518   -2.1731   -0.9087 H         1 <0>         0.0565
     29 H14         2.5015   -2.1569   -0.0334 H         1 <0>         0.0647
     30 H15         1.4937   -3.6240   -0.0317 H         1 <0>         0.0574
     31 H16         1.5176   -3.6375    2.4667 H         1 <0>         0.0586
     32 H17         2.5254   -2.1703    2.4649 H         1 <0>         0.0638
     33 H18         0.9926   -2.1961    3.3695 H         1 <0>         0.0596
     34 H19        -5.5854   -1.3687   -1.7706 H         1 <0>         0.0910
     35 H20        -6.7503   -2.5088   -1.0555 H         1 <0>         0.1057
     36 H21        -5.5478   -1.6998   -0.0221 H         1 <0>         0.1199
     37 H22        -4.8600   -3.1591   -3.2790 H         1 <0>         0.4429
     38 H23        -4.3465   -4.6249   -2.7290 H         1 <0>         0.4421
     39 H24        -5.9383   -4.2145   -2.6170 H         1 <0>         0.4490
@<TRIPOS>BOND
     1    1    2 1
     2    1   19 1
     3    1   20 1
     4    1   21 1
     5    2    3 1
     6    2    9 1
     7    2    4 1
     8    4    5 1
     9    4   22 1
    10    4   23 1
    11    5    6 1
    12    5    7 1
    13    5   12 1
    14    7    8 1
    15    7   24 1
    16    7   25 1
    17    8    9 1
    18    8   10 1
    19    8   11 1
    20    9   26 1
    21    9   27 1
    22   10   28 1
    23   10   29 1
    24   10   30 1
    25   11   31 1
    26   11   32 1
    27   11   33 1
    28   12   13 1
    29   13   14 2
    30   13   15 1
    31   15   16 1
    32   15   17 1
    33   15   18 1
    34   17   34 1
    35   17   35 1
    36   17   36 1
    37   18   37 1
    38   18   38 1
    39   18   39 1
@<TRIPOS>MOLECULE
ZINC49556512
   36    37     0     0     0
SMALL
USER_CHARGES

@<TRIPOS>ATOM
      1 C1         -0.2579    1.4133   -0.6327 C.3       1 <0>        -0.1307
      2 C2         -0.1759   -0.0837   -0.4800 C.ar      1 <0>        -0.0499
      3 C3         -0.1298   -0.8913   -1.6010 C.ar      1 <0>        -0.1086
      4 C4         -0.0546   -2.2645   -1.4609 C.ar      1 <0>        -0.0830
      5 C5         -0.0249   -2.8300   -0.1999 C.ar      1 <0>        -0.1545
      6 C6         -0.0701   -2.0224    0.9210 C.ar      1 <0>        -0.1142
      7 C7         -0.1410   -0.6490    0.7810 C.ar      1 <0>        -0.1058
      8 C8          0.0561   -4.3271   -0.0472 C.3       1 <0>         0.0799
      9 H1         -0.2693   -4.8047   -0.9714 H         1 <0>         0.1456
     10 C9          1.5004   -4.7315    0.2548 C.3       1 <0>        -0.1774
     11 N1         -0.8132   -4.7544    1.0571 N.4       1 <0>        -0.4987
     12 C10        -2.2151   -4.4886    0.7079 C.3       1 <0>        -0.0139
     13 H2         -2.3381   -3.4543    0.3864 H         1 <0>         0.1684
     14 C11        -2.6913   -5.4588   -0.3959 C.3       1 <0>         0.0399
     15 O1         -4.0598   -5.7662   -0.0517 O.3       1 <0>        -0.3352
     16 C12        -4.0654   -5.9212    1.3842 C.3       1 <0>         0.0082
     17 C13        -3.1395   -4.7962    1.9071 C.3       1 <0>         0.0631
     18 H3         -2.5563   -5.1456    2.7591 H         1 <0>         0.0908
     19 O2         -3.9022   -3.6407    2.2608 O.3       1 <0>        -0.5437
     20 H4          0.7485    1.8301   -0.6729 H         1 <0>         0.0831
     21 H5         -0.7887    1.6561   -1.5533 H         1 <0>         0.0766
     22 H6         -0.7928    1.8365    0.2175 H         1 <0>         0.0754
     23 H7         -0.1530   -0.4494   -2.5862 H         1 <0>         0.1375
     24 H8         -0.0193   -2.8955   -2.3367 H         1 <0>         0.1346
     25 H9         -0.0473   -2.4642    1.9062 H         1 <0>         0.1170
     26 H10        -0.1725   -0.0177    1.6568 H         1 <0>         0.1352
     27 H11         1.8475   -4.2033    1.1428 H         1 <0>         0.0839
     28 H12         1.5478   -5.8063    0.4296 H         1 <0>         0.0855
     29 H13         2.1350   -4.4730   -0.5929 H         1 <0>         0.1111
     30 H14        -0.6887   -5.7423    1.2202 H         1 <0>         0.4282
     31 H15        -2.6449   -4.9755   -1.3718 H         1 <0>         0.1272
     32 H16        -2.0861   -6.3653   -0.3912 H         1 <0>         0.0839
     33 H17        -5.0746   -5.7932    1.7758 H         1 <0>         0.1202
     34 H18        -3.6709   -6.8986    1.6619 H         1 <0>         0.0868
     35 H19        -4.5000   -3.7777    3.0084 H         1 <0>         0.4057
     36 H20        -0.5718   -4.2426    1.8925 H         1 <0>         0.4278
@<TRIPOS>BOND
     1    1    2 1
     2    1   20 1
     3    1   21 1
     4    1   22 1
     5    2    7 ar
     6    2    3 ar
     7    3    4 ar
     8    3   23 1
     9    4    5 ar
    10    4   24 1
    11    5    6 ar
    12    5    8 1
    13    6    7 ar
    14    6   25 1
    15    7   26 1
    16    8    9 1
    17    8   10 1
    18    8   11 1
    19   10   27 1
    20   10   28 1
    21   10   29 1
    22   11   12 1
    23   11   30 1
    24   11   36 1
    25   12   13 1
    26   12   17 1
    27   12   14 1
    28   14   15 1
    29   14   31 1
    30   14   32 1
    31   15   16 1
    32   16   17 1
    33   16   33 1
    34   16   34 1
    35   17   18 1
    36   17   19 1
    37   19   35 1
@<TRIPOS>MOLECULE
ZINC37478807
   41    42     0     0     0
SMALL
USER_CHARGES

@<TRIPOS>ATOM
      1 C1          0.3624    1.8696    0.1354 C.3       1 <0>        -0.1540
      2 C2          0.1886    0.3499    0.1687 C.3       1 <0>        -0.1047
      3 H1          0.5738   -0.0807   -0.7556 H         1 <0>         0.0817
      4 C3         -1.2964    0.0086    0.3112 C.3       1 <0>        -0.1161
      5 C4         -1.4745   -1.5114    0.3116 C.3       1 <0>        -0.1061
      6 H2         -1.0735   -1.9249   -0.6138 H         1 <0>         0.0778
      7 C5         -0.7244   -2.1091    1.5060 C.3       1 <0>         0.1116
      8 N1          0.6754   -1.6656    1.4553 N.am      1 <0>        -0.5997
      9 C6          0.9583   -0.2268    1.3611 C.3       1 <0>         0.0777
     10 C7          1.6815   -2.5616    1.4945 C.2       1 <0>         0.5032
     11 O1          1.4381   -3.7406    1.6411 O.2       1 <0>        -0.4794
     12 C8          3.1089   -2.0983    1.3561 C.3       1 <0>         0.0805
     13 C9          4.0407   -3.3119    1.3510 C.3       1 <0>        -0.1689
     14 C10         3.2696   -1.3264    0.0449 C.3       1 <0>        -0.2272
     15 C11         4.0574   -2.0009   -1.0800 C.3       1 <0>        -0.1400
     16 C12         4.6707   -0.8272   -0.3137 C.3       1 <0>        -0.1666
     17 N2          3.4512   -1.2228    2.4849 N.4       1 <0>        -0.6341
     18 C13        -2.9624   -1.8512    0.4202 C.3       1 <0>        -0.1506
     19 H3          1.4204    2.1122    0.0351 H         1 <0>         0.0586
     20 H4         -0.1863    2.2796   -0.7124 H         1 <0>         0.0717
     21 H5         -0.0229    2.2997    1.0599 H         1 <0>         0.0641
     22 H6         -1.6751    0.4188    1.2473 H         1 <0>         0.0724
     23 H7         -1.8496    0.4388   -0.5237 H         1 <0>         0.0793
     24 H8         -1.1827   -1.7668    2.4338 H         1 <0>         0.0830
     25 H9         -0.7650   -3.1972    1.4557 H         1 <0>         0.1022
     26 H10         2.0274   -0.0729    1.2149 H         1 <0>         0.0769
     27 H11         0.6376    0.2689    2.2773 H         1 <0>         0.0934
     28 H12         3.7866   -3.9615    0.5134 H         1 <0>         0.1175
     29 H13         5.0730   -2.9768    1.2509 H         1 <0>         0.0934
     30 H14         3.9261   -3.8618    2.2851 H         1 <0>         0.0950
     31 H15         2.4242   -0.6994   -0.2382 H         1 <0>         0.1449
     32 H16         4.4611   -2.9946   -0.8859 H         1 <0>         0.1180
     33 H17         3.7302   -1.8178   -2.1035 H         1 <0>         0.1178
     34 H18         4.7470    0.1281   -0.8331 H         1 <0>         0.1208
     35 H19         5.4780   -1.0487    0.3844 H         1 <0>         0.1067
     36 H20         3.2917   -1.7139    3.3518 H         1 <0>         0.4398
     37 H21         4.4227   -0.9577    2.4223 H         1 <0>         0.4390
     38 H22        -3.4957   -1.4233   -0.4287 H         1 <0>         0.0667
     39 H23        -3.0887   -2.9338    0.4204 H         1 <0>         0.0627
     40 H24        -3.3627   -1.4385    1.3462 H         1 <0>         0.0612
     41 H25         2.8742   -0.3955    2.4559 H         1 <0>         0.4300
@<TRIPOS>BOND
     1    1    2 1
     2    1   19 1
     3    1   20 1
     4    1   21 1
     5    2    3 1
     6    2    9 1
     7    2    4 1
     8    4    5 1
     9    4   22 1
    10    4   23 1
    11    5    6 1
    12    5    7 1
    13    5   18 1
    14    7    8 1
    15    7   24 1
    16    7   25 1
    17    8    9 1
    18    8   10 am
    19    9   26 1
    20    9   27 1
    21   10   11 2
    22   10   12 1
    23   12   13 1
    24   12   14 1
    25   12   17 1
    26   13   28 1
    27   13   29 1
    28   13   30 1
    29   14   16 1
    30   14   15 1
    31   14   31 1
    32   15   16 1
    33   15   32 1
    34   15   33 1
    35   16   34 1
    36   16   35 1
    37   17   36 1
    38   17   37 1
    39   17   41 1
    40   18   38 1
    41   18   39 1
    42   18   40 1
@<TRIPOS>MOLECULE
ZINC63145296
   39    40     0     0     0
SMALL
USER_CHARGES

@<TRIPOS>ATOM
      1 C1         -0.0187    1.5258    0.0104 C.3       1 <0>        -0.1544
      2 C2          0.0021   -0.0041    0.0020 C.3       1 <0>        -0.0974
      3 C3         -1.4333   -0.5336    0.0129 C.3       1 <0>        -0.1170
      4 C4         -2.1494   -0.0402    1.2717 C.3       1 <0>        -0.1137
      5 C5         -1.4095   -0.5471    2.5112 C.3       1 <0>        -0.1114
      6 C6          0.0259   -0.0175    2.5003 C.3       1 <0>        -0.1324
      7 C7          0.7421   -0.5109    1.2415 C.3       1 <0>        -0.1148
      8 C8         -2.1256   -0.0536    3.7700 C.3       1 <0>        -0.0126
      9 N1         -1.4870   -0.6373    4.9572 N.4       1 <0>        -0.4908
     10 C9         -2.1746   -0.1636    6.1659 C.3       1 <0>        -0.0042
     11 H1         -3.2431   -0.3690    6.1015 H         1 <0>         0.1623
     12 C10        -1.9253    1.3467    6.3736 C.3       1 <0>         0.0324
     13 O1         -1.7985    1.5066    7.8034 O.3       1 <0>        -0.3361
     14 C11        -1.0253    0.3700    8.2462 C.3       1 <0>         0.0050
     15 C12        -1.5713   -0.8237    7.4258 C.3       1 <0>         0.0581
     16 H2         -2.3421   -1.3535    7.9857 H         1 <0>         0.1131
     17 O2         -0.5115   -1.7124    7.0668 O.3       1 <0>        -0.5758
     18 H3          1.0039    1.9031    0.0027 H         1 <0>         0.0576
     19 H4         -0.5459    1.8868   -0.8726 H         1 <0>         0.0593
     20 H5         -0.5289    1.8773    0.9072 H         1 <0>         0.0555
     21 H6          0.5123   -0.3556   -0.8948 H         1 <0>         0.0787
     22 H7         -1.9605   -0.1726   -0.8702 H         1 <0>         0.0747
     23 H8         -1.4185   -1.6235    0.0069 H         1 <0>         0.0671
     24 H9         -2.1642    1.0497    1.2777 H         1 <0>         0.0779
     25 H10        -3.1720   -0.4175    1.2794 H         1 <0>         0.0738
     26 H11        -1.3947   -1.6369    2.5052 H         1 <0>         0.0955
     27 H12         0.0111    1.0724    2.5063 H         1 <0>         0.0816
     28 H13         0.5531   -0.3786    3.3834 H         1 <0>         0.0565
     29 H14         0.7568   -1.6008    1.2356 H         1 <0>         0.0676
     30 H15         1.7647   -0.1336    1.2338 H         1 <0>         0.0732
     31 H16        -2.0630    1.0334    3.8212 H         1 <0>         0.1311
     32 H17        -3.1722   -0.3560    3.7347 H         1 <0>         0.1354
     33 H18        -1.5450   -1.6435    4.9099 H         1 <0>         0.4357
     34 H19        -1.0054    1.6516    5.8747 H         1 <0>         0.0837
     35 H20        -2.7701    1.9256    6.0005 H         1 <0>         0.1287
     36 H21         0.0327    0.5251    8.0345 H         1 <0>         0.0867
     37 H22        -1.1787    0.1986    9.3117 H         1 <0>         0.1203
     38 H23        -0.0966   -2.1545    7.8201 H         1 <0>         0.4198
     39 H24        -0.5182   -0.3574    4.9899 H         1 <0>         0.4293
@<TRIPOS>BOND
     1    1    2 1
     2    1   18 1
     3    1   19 1
     4    1   20 1
     5    2    7 1
     6    2    3 1
     7    2   21 1
     8    3    4 1
     9    3   22 1
    10    3   23 1
    11    4    5 1
    12    4   24 1
    13    4   25 1
    14    5    6 1
    15    5    8 1
    16    5   26 1
    17    6    7 1
    18    6   27 1
    19    6   28 1
    20    7   29 1
    21    7   30 1
    22    8    9 1
    23    8   31 1
    24    8   32 1
    25    9   10 1
    26    9   33 1
    27    9   39 1
    28   10   11 1
    29   10   15 1
    30   10   12 1
    31   12   13 1
    32   12   34 1
    33   12   35 1
    34   13   14 1
    35   14   15 1
    36   14   36 1
    37   14   37 1
    38   15   16 1
    39   15   17 1
    40   17   38 1
@<TRIPOS>MOLECULE
ZINC19970631
   31    32     0     0     0
SMALL
USER_CHARGES
(S)-cyclobutyl-(5-ethyl-2-thienyl)methanamine
@<TRIPOS>ATOM
      1 C1         -0.6345   -0.1306   -0.1317 C.3       1 <0>        -0.1532
      2 C2         -1.3199    0.4994    1.0825 C.3       1 <0>        -0.0569
      3 C3         -0.4587    0.3030    2.3035 C.2       1 <0>        -0.0725
      4 C4          0.5172    1.1036    2.7975 C.2       1 <0>        -0.1802
      5 C5          1.1831    0.7182    3.9459 C.2       1 <0>        -0.0738
      6 C6          0.8404   -0.4489    4.5441 C.2       1 <0>        -0.2573
      7 S1         -0.4644   -1.0406    3.4790 S.3       1 <0>         0.0436
      8 C7          1.4094   -1.0803    5.7886 C.3       1 <0>         0.1353
      9 H1          1.8929   -0.3105    6.4079 H         1 <0>         0.1446
     10 C8          2.4059   -2.1729    5.3962 C.3       1 <0>        -0.1511
     11 C9          3.3600   -2.5739    6.5336 C.3       1 <0>        -0.1439
     12 C10         4.4702   -2.6443    5.4693 C.3       1 <0>        -0.1139
     13 C11         3.6410   -1.6412    4.6501 C.3       1 <0>        -0.0977
     14 N1          0.3214   -1.6708    6.5794 N.4       1 <0>        -0.6865
     15 H2         -1.2631    0.0128   -1.0229 H         1 <0>         0.0753
     16 H3         -0.4902   -1.2065    0.0460 H         1 <0>         0.0592
     17 H4          0.3425    0.3490   -0.2911 H         1 <0>         0.0634
     18 H5         -1.4642    1.5753    0.9048 H         1 <0>         0.1003
     19 H6         -2.2969    0.0198    1.2419 H         1 <0>         0.0879
     20 H7          0.7705    2.0289    2.3015 H         1 <0>         0.1480
     21 H8          1.9648    1.3376    4.3602 H         1 <0>         0.1411
     22 H9          1.7079   -2.8888    4.9376 H         1 <0>         0.1023
     23 H10         3.3888   -1.7733    7.2874 H         1 <0>         0.0874
     24 H11         3.0038   -3.5041    7.0002 H         1 <0>         0.0758
     25 H12         5.4231   -2.3179    5.9113 H         1 <0>         0.0840
     26 H13         4.5683   -3.6792    5.1097 H         1 <0>         0.0955
     27 H14         3.5153   -1.8049    3.5696 H         1 <0>         0.0804
     28 H15         3.7533   -0.5648    4.8472 H         1 <0>         0.0924
     29 H16         0.7367   -2.1317    7.4878 H         1 <0>         0.4604
     30 H17        -0.1922   -2.4377    5.9811 H         1 <0>         0.4497
     31 H18        -0.3950   -0.8852    6.8615 H         1 <0>         0.4603
@<TRIPOS>BOND
     1    1    2 1
     2    1   15 1
     3    1   16 1
     4    1   17 1
     5    2    3 1
     6    2   18 1
     7    2   19 1
     8    3    7 1
     9    3    4 2
    10    4    5 1
    11    4   20 1
    12    5    6 2
    13    5   21 1
    14    6    7 1
    15    6    8 1
    16    8    9 1
    17    8   10 1
    18    8   14 1
    19   10   13 1
    20   10   11 1
    21   10   22 1
    22   11   12 1
    23   11   23 1
    24   11   24 1
    25   12   13 1
    26   12   25 1
    27   12   26 1
    28   13   27 1
    29   13   28 1
    30   14   29 1
    31   14   30 1
    32   14   31 1
@<TRIPOS>MOLECULE
ZINC37242079
   36    37     0     0     0
SMALL
USER_CHARGES

@<TRIPOS>ATOM
      1 C1         -0.0187    1.5258    0.0104 C.3       1 <0>        -0.1556
      2 C2          0.0021   -0.0041    0.0020 C.3       1 <0>        -0.1016
      3 C3         -1.4333   -0.5336    0.0129 C.3       1 <0>        -0.1123
      4 C4         -2.1494   -0.0402    1.2717 C.3       1 <0>        -0.1419
      5 C5         -1.4095   -0.5471    2.5112 C.3       1 <0>         0.0323
      6 C6          0.0259   -0.0175    2.5003 C.3       1 <0>        -0.1413
      7 C7          0.7421   -0.5109    1.2415 C.3       1 <0>        -0.1122
      8 N1         -2.0970   -0.0733    3.7198 N.4       1 <0>        -0.3925
      9 C8         -1.4714   -0.6550    4.9353 C.3       1 <0>         0.0013
     10 C9         -2.5662   -0.5601    6.0196 C.3       1 <0>        -0.1457
     11 C10        -3.8973   -0.5078    5.2418 C.3       1 <0>         0.0702
     12 H1         -4.4212    0.4250    5.4504 H         1 <0>         0.0743
     13 C11        -3.4948   -0.5754    3.7529 C.3       1 <0>        -0.0028
     14 N2         -4.7413   -1.6564    5.5970 N.3       1 <0>        -0.8401
     15 H2          1.0039    1.9031    0.0027 H         1 <0>         0.0623
     16 H3         -0.5459    1.8868   -0.8726 H         1 <0>         0.0621
     17 H4         -0.5289    1.8773    0.9072 H         1 <0>         0.0516
     18 H5          0.5123   -0.3556   -0.8948 H         1 <0>         0.0871
     19 H6         -1.9605   -0.1726   -0.8702 H         1 <0>         0.0845
     20 H7         -1.4185   -1.6235    0.0069 H         1 <0>         0.0744
     21 H8         -2.1642    1.0497    1.2777 H         1 <0>         0.0878
     22 H9         -3.1720   -0.4175    1.2794 H         1 <0>         0.0848
     23 H10        -1.3947   -1.6369    2.5052 H         1 <0>         0.1357
     24 H11         0.0111    1.0724    2.5063 H         1 <0>         0.0880
     25 H12         0.5531   -0.3786    3.3834 H         1 <0>         0.0854
     26 H13         0.7568   -1.6008    1.2356 H         1 <0>         0.0745
     27 H14         1.7647   -0.1336    1.2338 H         1 <0>         0.0848
     28 H15        -1.1980   -1.6956    4.7611 H         1 <0>         0.1338
     29 H16        -0.5961   -0.0747    5.2270 H         1 <0>         0.1334
     30 H17        -2.5383   -1.4391    6.6636 H         1 <0>         0.1196
     31 H18        -2.4367    0.3470    6.6100 H         1 <0>         0.0998
     32 H19        -4.1430    0.0648    3.1545 H         1 <0>         0.1319
     33 H20        -3.5380   -1.6036    3.3938 H         1 <0>         0.1411
     34 H21        -4.9713   -1.6461    6.5794 H         1 <0>         0.3647
     35 H22        -5.5759   -1.6808    5.0305 H         1 <0>         0.3567
     36 H23        -2.0831    0.9347    3.7616 H         1 <0>         0.4238
@<TRIPOS>BOND
     1    1    2 1
     2    1   15 1
     3    1   16 1
     4    1   17 1
     5    2    7 1
     6    2    3 1
     7    2   18 1
     8    3    4 1
     9    3   19 1
    10    3   20 1
    11    4    5 1
    12    4   21 1
    13    4   22 1
    14    5    6 1
    15    5    8 1
    16    5   23 1
    17    6    7 1
    18    6   24 1
    19    6   25 1
    20    7   26 1
    21    7   27 1
    22    8   13 1
    23    8    9 1
    24    8   36 1
    25    9   10 1
    26    9   28 1
    27    9   29 1
    28   10   11 1
    29   10   30 1
    30   10   31 1
    31   11   12 1
    32   11   13 1
    33   11   14 1
    34   13   32 1
    35   13   33 1
    36   14   34 1
    37   14   35 1
@<TRIPOS>MOLECULE
ZINC44460800
   24    24     0     0     0
SMALL
USER_CHARGES

@<TRIPOS>ATOM
      1 C1         -0.0187    1.5258    0.0104 C.3       1 <0>        -0.1827
      2 C2          0.0021   -0.0041    0.0020 C.3       1 <0>         0.0312
      3 H1         -1.0205   -0.3814    0.0098 H         1 <0>         0.1449
      4 C3          0.7182   -0.4975   -1.2568 C.3       1 <0>        -0.1083
      5 C4          0.6316   -2.0003   -1.3275 C.ar      1 <0>        -0.1238
      6 C5          1.6131   -2.7790   -0.7379 C.ar      1 <0>         0.0775
      7 C6          1.5340   -4.1594   -0.8033 C.ar      1 <0>        -0.1000
      8 C7          0.4752   -4.7613   -1.4570 C.ar      1 <0>        -0.1001
      9 C8         -0.5063   -3.9840   -2.0467 C.ar      1 <0>         0.1247
     10 C9         -0.4308   -2.6020   -1.9763 C.ar      1 <0>        -0.0493
     11 Cl1        -1.6658   -1.6264   -2.7090 Cl        1 <0>        -0.0110
     12 F1         -1.5409   -4.5724   -2.6860 F         1 <0>        -0.1064
     13 F2          2.6484   -2.1913   -0.0992 F         1 <0>        -0.1307
     14 N1          0.7126   -0.4907    1.1921 N.4       1 <0>        -0.6382
     15 H2          1.0039    1.9031    0.0027 H         1 <0>         0.0867
     16 H3         -0.5459    1.8868   -0.8726 H         1 <0>         0.1106
     17 H4         -0.5289    1.8773    0.9072 H         1 <0>         0.0889
     18 H5          0.2444   -0.0644   -2.1377 H         1 <0>         0.1345
     19 H6          1.7648   -0.1951   -1.2215 H         1 <0>         0.1139
     20 H7          2.2999   -4.7664   -0.3436 H         1 <0>         0.1650
     21 H8          0.4141   -5.8384   -1.5080 H         1 <0>         0.1687
     22 H9          0.2403   -0.1653    2.0223 H         1 <0>         0.4395
     23 H10         0.7262   -1.4996    1.1866 H         1 <0>         0.4289
     24 H11         1.6592   -0.1415    1.1850 H         1 <0>         0.4355
@<TRIPOS>BOND
     1    1    2 1
     2    1   15 1
     3    1   16 1
     4    1   17 1
     5    2    3 1
     6    2    4 1
     7    2   14 1
     8    4    5 1
     9    4   18 1
    10    4   19 1
    11    5   10 ar
    12    5    6 ar
    13    6    7 ar
    14    6   13 1
    15    7    8 ar
    16    7   20 1
    17    8    9 ar
    18    8   21 1
    19    9   10 ar
    20    9   12 1
    21   10   11 1
    22   14   22 1
    23   14   23 1
    24   14   24 1
@<TRIPOS>MOLECULE
ZINC51690300
   30    30     0     0     0
SMALL
USER_CHARGES

@<TRIPOS>ATOM
      1 C1         -0.0187    1.5258    0.0104 C.3       1 <0>        -0.1599
      2 C2          0.0021   -0.0041    0.0020 C.3       1 <0>        -0.1180
      3 C3          0.7182   -0.4975   -1.2568 C.3       1 <0>        -0.0682
      4 H1          0.2444   -0.0644   -2.1377 H         1 <0>         0.0801
      5 C4          2.1873   -0.0730   -1.2073 C.3       1 <0>        -0.1538
      6 C5          0.6303   -2.0233   -1.3286 C.3       1 <0>        -0.1398
      7 H2          0.6589   -2.5414   -0.3701 H         1 <0>         0.1099
      8 C6         -0.2365   -2.6297   -2.4339 C.3       1 <0>        -0.1392
      9 C7          1.2893   -2.7133   -2.5246 C.3       1 <0>        -0.2060
     10 H3          1.7855   -2.0803   -3.2603 H         1 <0>         0.1331
     11 C8          1.9375   -4.0782   -2.2837 C.3       1 <0>         0.0617
     12 H4          1.1843   -4.7799   -1.9254 H         1 <0>         0.1396
     13 C9          2.5358   -4.5968   -3.5929 C.3       1 <0>        -0.1801
     14 N1          3.0003   -3.9450   -1.2784 N.4       1 <0>        -0.6370
     15 H5          1.0039    1.9031    0.0027 H         1 <0>         0.0580
     16 H6         -0.5459    1.8868   -0.8726 H         1 <0>         0.0569
     17 H7         -0.5289    1.8773    0.9072 H         1 <0>         0.0601
     18 H8          0.5293   -0.3651    0.8851 H         1 <0>         0.0624
     19 H9         -1.0205   -0.3814    0.0098 H         1 <0>         0.0666
     20 H10         2.6611   -0.5061   -0.3263 H         1 <0>         0.0528
     21 H11         2.6975   -0.4246   -2.1040 H         1 <0>         0.0522
     22 H12         2.2499    1.0140   -1.1561 H         1 <0>         0.0700
     23 H13        -0.7778   -3.5471   -2.2027 H         1 <0>         0.1081
     24 H14        -0.7441   -1.9417   -3.1100 H         1 <0>         0.1144
     25 H15         2.9976   -5.5691   -3.4213 H         1 <0>         0.0834
     26 H16         1.7472   -4.6956   -4.3388 H         1 <0>         0.1078
     27 H17         3.2890   -3.8950   -3.9512 H         1 <0>         0.0825
     28 H18         2.6057   -3.6029   -0.4151 H         1 <0>         0.4329
     29 H19         3.4277   -4.8450   -1.1196 H         1 <0>         0.4359
     30 H20         3.6975   -3.2954   -1.6102 H         1 <0>         0.4337
@<TRIPOS>BOND
     1    1    2 1
     2    1   15 1
     3    1   16 1
     4    1   17 1
     5    2    3 1
     6    2   18 1
     7    2   19 1
     8    3    4 1
     9    3    5 1
    10    3    6 1
    11    5   20 1
    12    5   21 1
    13    5   22 1
    14    6    7 1
    15    6    9 1
    16    6    8 1
    17    8    9 1
    18    8   23 1
    19    8   24 1
    20    9   10 1
    21    9   11 1
    22   11   12 1
    23   11   13 1
    24   11   14 1
    25   13   25 1
    26   13   26 1
    27   13   27 1
    28   14   28 1
    29   14   29 1
    30   14   30 1
@<TRIPOS>MOLECULE
ZINC62830006
   35    36     0     0     0
SMALL
USER_CHARGES

@<TRIPOS>ATOM
      1 C1         -0.0188    1.5384    0.0105 C.3       1 <0>        -0.1239
      2 C2          1.4774    1.9387   -0.0016 C.3       1 <0>        -0.1238
      3 C3          2.1065    0.8811   -0.9423 C.3       1 <0>        -0.1041
      4 C4          1.3534   -0.4220   -0.6038 C.3       1 <0>        -0.0542
      5 C5          0.0021   -0.0041    0.0020 C.3       1 <0>        -0.1205
      6 S1          1.0844   -1.3939   -2.1117 S.3       1 <0>        -0.2424
      7 C6          0.3369   -2.9346   -1.5132 C.3       1 <0>        -0.0589
      8 H1         -0.5436   -2.7125   -0.9103 H         1 <0>         0.0968
      9 C7          1.3619   -3.7300   -0.6787 C.3       1 <0>        -0.1256
     10 C8          1.0779   -5.2096   -1.0380 C.3       1 <0>        -0.1245
     11 C9          0.7531   -5.1378   -2.5507 C.3       1 <0>        -0.1291
     12 C10        -0.0514   -3.8291   -2.7035 C.3       1 <0>        -0.1012
     13 H2          0.2094   -3.3375   -3.6408 H         1 <0>         0.1066
     14 C11        -1.5515   -4.1277   -2.6673 C.3       1 <0>        -0.0021
     15 N1         -1.9301   -4.8807   -3.8706 N.4       1 <0>        -0.6373
     16 H3         -0.5054    1.9084    0.9130 H         1 <0>         0.0716
     17 H4         -0.5225    1.9180   -0.8785 H         1 <0>         0.0701
     18 H5          1.6056    2.9420   -0.4079 H         1 <0>         0.0764
     19 H6          1.9042    1.8684    0.9989 H         1 <0>         0.0729
     20 H7          1.9461    1.1545   -1.9852 H         1 <0>         0.0767
     21 H8          3.1710    0.7713   -0.7351 H         1 <0>         0.0788
     22 H9          1.9228   -1.0050    0.1201 H         1 <0>         0.0923
     23 H10        -0.0844   -0.3843    1.0199 H         1 <0>         0.0700
     24 H11        -0.8154   -0.3852   -0.6101 H         1 <0>         0.0695
     25 H12         2.3785   -3.4570   -0.9620 H         1 <0>         0.0883
     26 H13         1.2024   -3.5585    0.3858 H         1 <0>         0.0783
     27 H14         1.9592   -5.8261   -0.8609 H         1 <0>         0.0838
     28 H15         0.2227   -5.5861   -0.4767 H         1 <0>         0.0726
     29 H16         1.6713   -5.0921   -3.1363 H         1 <0>         0.0928
     30 H17         0.1493   -5.9937   -2.8523 H         1 <0>         0.0647
     31 H18        -1.7831   -4.7186   -1.7811 H         1 <0>         0.1370
     32 H19        -2.1078   -3.1909   -2.6350 H         1 <0>         0.1385
     33 H20        -2.9194   -5.0776   -3.8467 H         1 <0>         0.4400
     34 H21        -1.7157   -4.3337   -4.6909 H         1 <0>         0.4368
     35 H22        -1.4151   -5.7479   -3.9005 H         1 <0>         0.4330
@<TRIPOS>BOND
     1    1    5 1
     2    1    2 1
     3    1   16 1
     4    1   17 1
     5    2    3 1
     6    2   18 1
     7    2   19 1
     8    3    4 1
     9    3   20 1
    10    3   21 1
    11    4    5 1
    12    4    6 1
    13    4   22 1
    14    5   23 1
    15    5   24 1
    16    6    7 1
    17    7    8 1
    18    7   12 1
    19    7    9 1
    20    9   10 1
    21    9   25 1
    22    9   26 1
    23   10   11 1
    24   10   27 1
    25   10   28 1
    26   11   12 1
    27   11   29 1
    28   11   30 1
    29   12   13 1
    30   12   14 1
    31   14   15 1
    32   14   31 1
    33   14   32 1
    34   15   33 1
    35   15   34 1
    36   15   35 1
@<TRIPOS>MOLECULE
ZINC05286472
   38    39     0     0     0
SMALL
USER_CHARGES
[2,3,4-trihydroxy-1-(3-oxo-4H-quinoxalin-2-yl)-butylidene]aminourea
@<TRIPOS>ATOM
      1 C1          4.0481    6.6191    1.3443 C.ar      1 <0>        -0.0433
      2 C2          3.3786    6.3217    2.5242 C.ar      1 <0>        -0.1439
      3 C3          2.2103    5.6180    2.5024 C.ar      1 <0>        -0.0232
      4 C4          1.6738    5.1860    1.2783 C.ar      1 <0>         0.0122
      5 C5          2.3529    5.4882    0.0823 C.ar      1 <0>         0.1628
      6 C6          3.5426    6.2077    0.1298 C.ar      1 <0>        -0.1631
      7 N1          1.8398    5.0727   -1.1323 N.am      1 <0>        -0.6195
      8 H1          2.3187    5.2851   -1.9841 H         1 <0>         0.4310
      9 C7          0.6827    4.3758   -1.1529 C.2       1 <0>         0.5079
     10 O1          0.2087    3.9982   -2.2082 O.2       1 <0>        -0.4982
     11 C8          0.0012    4.0791    0.1226 C.2       1 <0>         0.0865
     12 N2          0.5194    4.4966    1.2570 N.2       1 <0>        -0.3577
     13 C9         -1.2581    3.3234    0.1242 C.2       1 <0>         0.1236
     14 N3         -1.2445    2.0368   -0.0634 N.2       1 <0>        -0.1565
     15 N4         -0.0240    1.3547   -0.1526 N.am      1 <0>        -0.5817
     16 C10        -0.0086    0.0103   -0.2456 C.2       1 <0>         0.7362
     17 O2          1.0504   -0.5813   -0.3281 O.2       1 <0>        -0.5822
     18 N5         -1.1671   -0.6785   -0.2473 N.am      1 <0>        -0.8438
     19 C11        -2.5661    4.0392    0.3434 C.3       1 <0>         0.1499
     20 H2         -2.5527    4.5308    1.3161 H         1 <0>         0.1383
     21 C12        -3.7142    3.0288    0.2983 C.3       1 <0>         0.0873
     22 H3         -3.6212    2.3356    1.1343 H         1 <0>         0.1208
     23 C13        -5.0494    3.7694    0.3959 C.3       1 <0>         0.0478
     24 O3         -6.1157    2.8210    0.4711 O.3       1 <0>        -0.5641
     25 O4         -3.6612    2.3022   -0.9310 O.3       1 <0>        -0.5302
     26 O5         -2.7516    5.0170   -0.6820 O.3       1 <0>        -0.5421
     27 H4          4.9718    7.1776    1.3786 H         1 <0>         0.1417
     28 H5          3.7869    6.6512    3.4682 H         1 <0>         0.1417
     29 H6          1.6979    5.3930    3.4261 H         1 <0>         0.1476
     30 H7          4.0690    6.4437   -0.7832 H         1 <0>         0.1411
     31 H8          0.8098    1.8504   -0.1514 H         1 <0>         0.3969
     32 H9         -2.0120   -0.2065   -0.1815 H         1 <0>         0.4137
     33 H10        -1.1560   -1.6461   -0.3143 H         1 <0>         0.4164
     34 H11        -5.0544    4.3933    1.2897 H         1 <0>         0.0570
     35 H12        -5.1824    4.3964   -0.4857 H         1 <0>         0.0570
     36 H13        -6.9939    3.2208    0.5352 H         1 <0>         0.3819
     37 H14        -3.7382    2.8568   -1.7194 H         1 <0>         0.3675
     38 H15        -2.7736    4.6498   -1.5763 H         1 <0>         0.3826
@<TRIPOS>BOND
     1    1    6 ar
     2    1    2 ar
     3    1   27 1
     4    2    3 ar
     5    2   28 1
     6    3    4 ar
     7    3   29 1
     8    4   12 1
     9    4    5 ar
    10    5    6 ar
    11    5    7 1
    12    6   30 1
    13    7    8 1
    14    7    9 am
    15    9   10 2
    16    9   11 1
    17   11   12 2
    18   11   13 1
    19   13   14 2
    20   13   19 1
    21   14   15 1
    22   15   16 am
    23   15   31 1
    24   16   17 2
    25   16   18 am
    26   18   32 1
    27   18   33 1
    28   19   20 1
    29   19   21 1
    30   19   26 1
    31   21   22 1
    32   21   23 1
    33   21   25 1
    34   23   24 1
    35   23   34 1
    36   23   35 1
    37   24   36 1
    38   25   37 1
    39   26   38 1
@<TRIPOS>MOLECULE
ZINC31468901
   46    46     0     0     0
SMALL
USER_CHARGES
N-carbamoyl-2-[[(1R,2R)-2-methylcyclohexyl]-(2-oxo-2-ureido-ethyl)amino]acetamide
@<TRIPOS>ATOM
      1 C1          0.4266    1.3380    1.7838 C.3       1 <0>        -0.1540
      2 C2         -0.5977    1.8063    0.7483 C.3       1 <0>        -0.0978
      3 H1         -1.5273    1.2300    0.8656 H         1 <0>         0.0914
      4 C3         -0.0369    1.5887   -0.6584 C.3       1 <0>        -0.1163
      5 C4         -1.0612    2.0570   -1.6940 C.3       1 <0>        -0.1296
      6 C5         -1.3535    3.5443   -1.4858 C.3       1 <0>        -0.1170
      7 C6         -1.9144    3.7619   -0.0791 C.3       1 <0>        -0.1409
      8 C7         -0.8900    3.2936    0.9564 C.3       1 <0>         0.0239
      9 H2          0.0352    3.8835    0.8784 H         1 <0>         0.1496
     10 N1         -1.4285    3.5025    2.3071 N.4       1 <0>        -0.3881
     11 C8         -1.3043    4.9093    2.7116 C.3       1 <0>        -0.0296
     12 C9          0.1535    5.2660    2.8477 C.2       1 <0>         0.5102
     13 O1          1.0049    4.4310    2.6294 O.2       1 <0>        -0.4488
     14 N2          0.5108    6.5134    3.2122 N.am      1 <0>        -0.6913
     15 C10         1.8146    6.8324    3.3340 C.2       1 <0>         0.6977
     16 O2          2.6681    5.9953    3.1151 O.2       1 <0>        -0.5308
     17 N3          2.1720    8.0798    3.6985 N.am      1 <0>        -0.8736
     18 C11        -2.8238    3.0512    2.3932 C.3       1 <0>        -0.0461
     19 C12        -2.8573    1.5581    2.5942 C.2       1 <0>         0.5068
     20 O3         -1.8292    0.9519    2.8072 O.2       1 <0>        -0.4401
     21 N4         -4.0302    0.8966    2.5373 N.am      1 <0>        -0.6911
     22 C13        -4.0601   -0.4388    2.7171 C.2       1 <0>         0.6979
     23 O4         -3.0294   -1.0465    2.9306 O.2       1 <0>        -0.5300
     24 N5         -5.2330   -1.1003    2.6601 N.am      1 <0>        -0.8741
     25 H3          0.6367    0.2687    1.6341 H         1 <0>         0.0782
     26 H4          0.0233    1.4944    2.7952 H         1 <0>         0.0653
     27 H5          1.3562    1.9143    1.6666 H         1 <0>         0.0689
     28 H6          0.8927    2.1649   -0.7757 H         1 <0>         0.0749
     29 H7          0.1732    0.5194   -0.8081 H         1 <0>         0.0840
     30 H8         -0.6578    1.9006   -2.7054 H         1 <0>         0.0801
     31 H9         -1.9908    1.4807   -1.5769 H         1 <0>         0.0662
     32 H10        -0.4239    4.1206   -1.6030 H         1 <0>         0.0761
     33 H11        -2.0900    3.8810   -2.2303 H         1 <0>         0.0854
     34 H12        -2.1245    4.8312    0.0705 H         1 <0>         0.0851
     35 H13        -2.8441    3.1857    0.0382 H         1 <0>         0.0849
     36 H14        -1.7696    5.5523    1.9499 H         1 <0>         0.1658
     37 H15        -1.8102    5.0594    3.6768 H         1 <0>         0.1690
     38 H16        -0.2617    7.2711    3.4103 H         1 <0>         0.4431
     39 H17         3.2361    8.3401    3.7979 H         1 <0>         0.4550
     40 H18         1.3996    8.8375    3.8966 H         1 <0>         0.4224
     41 H19        -3.3177    3.5466    3.2421 H         1 <0>         0.1694
     42 H20        -3.3503    3.3077    1.4621 H         1 <0>         0.1724
     43 H21        -4.9630    1.4466    2.3441 H         1 <0>         0.4419
     44 H22        -5.2575   -2.1902    2.8068 H         1 <0>         0.4548
     45 H23        -6.1658   -0.5503    2.4668 H         1 <0>         0.4221
     46 H24        -0.8334    2.8961    3.0057 H         1 <0>         0.4568
@<TRIPOS>BOND
     1    1    2 1
     2    1   25 1
     3    1   26 1
     4    1   27 1
     5    2    3 1
     6    2    8 1
     7    2    4 1
     8    4    5 1
     9    4   28 1
    10    4   29 1
    11    5    6 1
    12    5   30 1
    13    5   31 1
    14    6    7 1
    15    6   32 1
    16    6   33 1
    17    7    8 1
    18    7   34 1
    19    7   35 1
    20    8    9 1
    21    8   10 1
    22   10   11 1
    23   10   18 1
    24   10   46 1
    25   11   12 1
    26   11   36 1
    27   11   37 1
    28   12   13 2
    29   12   14 am
    30   14   15 am
    31   14   38 1
    32   15   16 2
    33   15   17 am
    34   17   39 1
    35   17   40 1
    36   18   19 1
    37   18   41 1
    38   18   42 1
    39   19   20 2
    40   19   21 am
    41   21   22 am
    42   21   43 1
    43   22   23 2
    44   22   24 am
    45   24   44 1
    46   24   45 1
@<TRIPOS>MOLECULE
ZINC38610427
   42    44     0     0     0
SMALL
USER_CHARGES

@<TRIPOS>ATOM
      1 C1         -0.0167    1.3798    0.0096 C.ar      1 <0>        -0.0880
      2 C2          1.1680    2.0952    0.0022 C.ar      1 <0>        -0.1181
      3 C3          2.3774    1.4331   -0.0134 C.ar      1 <0>        -0.0635
      4 C4          2.4048    0.0349   -0.0211 C.ar      1 <0>        -0.0568
      5 C5          1.2034   -0.6808   -0.0130 C.ar      1 <0>        -0.0916
      6 C6          0.0021   -0.0041    0.0020 C.ar      1 <0>        -0.1264
      7 C7          3.6913   -0.6796   -0.0381 C.2       1 <0>         0.1583
      8 N1          4.8842   -0.1522   -0.0419 N.2       1 <0>        -0.2910
      9 N2          5.8856   -1.1176   -0.0585 N.2       1 <0>        -0.2823
     10 C8          5.4126   -2.3214   -0.0665 C.2       1 <0>         0.0871
     11 C9          3.9037   -2.1806   -0.0483 C.3       1 <0>        -0.0860
     12 H1          3.4673   -2.6243   -0.9432 H         1 <0>         0.1585
     13 C10         3.3243   -2.8074    1.1937 C.2       1 <0>         0.1428
     14 N3          2.4015   -3.6891    1.0948 N.2       1 <0>        -0.2289
     15 N4          1.8629   -4.2718    2.2495 N.am      1 <0>        -0.5739
     16 C11         0.8913   -5.2001    2.1454 C.2       1 <0>         0.5432
     17 O1          0.4832   -5.5310    1.0521 O.2       1 <0>        -0.4772
     18 C12         0.3119   -5.8269    3.3874 C.3       1 <0>        -0.0081
     19 N5         -0.7218   -6.7994    3.0085 N.3       1 <0>        -0.3559
     20 C13        -1.3646   -7.3823    4.2048 C.3       1 <0>         0.3291
     21 H2         -2.4324   -7.1632    4.2010 H         1 <0>         0.2457
     22 N6         -1.1443   -8.8448    4.1200 N.3       1 <0>        -0.4412
     23 N7         -0.9201   -9.0921    2.6870 N.4       1 <0>        -0.2408
     24 N8         -0.1412   -7.9191    2.2620 N.3       1 <0>        -0.3181
     25 N9         -0.7438   -6.8464    5.4236 N.4       1 <0>        -0.6664
     26 H3         -0.9607    1.9041    0.0260 H         1 <0>         0.1323
     27 H4          1.1452    3.1750    0.0081 H         1 <0>         0.1373
     28 H5          3.3011    1.9927   -0.0199 H         1 <0>         0.1404
     29 H6          1.2164   -1.7607   -0.0189 H         1 <0>         0.1237
     30 H7         -0.9266   -0.5553    0.0079 H         1 <0>         0.1271
     31 H8          5.9786   -3.2412   -0.0798 H         1 <0>         0.2120
     32 H9          3.6877   -2.5128    2.1671 H         1 <0>         0.1311
     33 H10         2.1892   -4.0072    3.1237 H         1 <0>         0.3911
     34 H11         1.1022   -6.3338    3.9411 H         1 <0>         0.1145
     35 H12        -0.1304   -5.0517    4.0131 H         1 <0>         0.1579
     36 H13        -0.3413   -9.1217    4.6647 H         1 <0>         0.4117
     37 H14        -0.3903   -9.9398    2.5505 H         1 <0>         0.4813
     38 H15        -0.2231   -7.7717    1.2672 H         1 <0>         0.4503
     39 H16        -0.8539   -5.8436    5.4442 H         1 <0>         0.4658
     40 H17        -1.1895   -7.2504    6.2337 H         1 <0>         0.4679
     41 H18        -1.7980   -9.1351    2.1915 H         1 <0>         0.4643
     42 H19         0.2385   -7.0771    5.4301 H         1 <0>         0.4405
@<TRIPOS>BOND
     1    1    6 ar
     2    1    2 ar
     3    1   26 1
     4    2    3 ar
     5    2   27 1
     6    3    4 ar
     7    3   28 1
     8    4    5 ar
     9    4    7 1
    10    5    6 ar
    11    5   29 1
    12    6   30 1
    13    7   11 1
    14    7    8 2
    15    8    9 1
    16    9   10 2
    17   10   11 1
    18   10   31 1
    19   11   12 1
    20   11   13 1
    21   13   14 2
    22   13   32 1
    23   14   15 1
    24   15   16 am
    25   15   33 1
    26   16   17 2
    27   16   18 1
    28   18   19 1
    29   18   34 1
    30   18   35 1
    31   19   24 1
    32   19   20 1
    33   20   21 1
    34   20   22 1
    35   20   25 1
    36   22   23 1
    37   22   36 1
    38   23   24 1
    39   23   37 1
    40   23   41 1
    41   24   38 1
    42   25   39 1
    43   25   40 1
    44   25   42 1
@<TRIPOS>MOLECULE
ZINC61805737
   34    34     0     0     0
SMALL
USER_CHARGES

@<TRIPOS>ATOM
      1 C1          0.2905    0.8476   -1.0672 C.ar      1 <0>        -0.2545
      2 C2          1.4533    1.5621   -1.0719 C.ar      1 <0>         0.0008
      3 C3          2.3707    1.4171   -0.0260 C.ar      1 <0>        -0.2763
      4 C4          2.0898    0.5327    1.0305 C.ar      1 <0>         0.3180
      5 C5          0.9054   -0.1870    1.0244 C.ar      1 <0>        -0.2905
      6 C6          0.0065   -0.0307   -0.0226 C.ar      1 <0>         0.2826
      7 N1         -1.1820   -0.7530   -0.0288 N.pl3     1 <0>        -0.8684
      8 N2          2.9942    0.3810    2.0738 N.pl3     1 <0>        -0.8557
      9 C7          3.6247    2.1866   -0.0314 C.2       1 <0>         0.5949
     10 O1          4.6922    1.6104    0.0589 O.2       1 <0>        -0.5362
     11 N3          3.5907    3.5298   -0.1365 N.am      1 <0>        -0.5777
     12 C8          4.8387    4.2865   -0.2634 C.3       1 <0>         0.0962
     13 C9          5.1912    4.4333   -1.7212 C.2       1 <0>         0.4995
     14 O2          4.4708    3.9533   -2.5706 O.2       1 <0>        -0.5328
     15 N4          6.3069    5.0982   -2.0811 N.am      1 <0>        -0.8540
     16 C10         2.3057    4.2332   -0.1239 C.3       1 <0>         0.0875
     17 C11         1.8803    4.4767    1.3011 C.2       1 <0>         0.4983
     18 O3          2.5814    4.0997    2.2161 O.2       1 <0>        -0.5288
     19 N5          0.7206    5.1133    1.5588 N.am      1 <0>        -0.8536
     20 H1         -0.4160    0.9667   -1.8753 H         1 <0>         0.1226
     21 H2          1.6657    2.2405   -1.8850 H         1 <0>         0.1289
     22 H3          0.6822   -0.8686    1.8318 H         1 <0>         0.1229
     23 H4         -1.8114   -0.6451   -0.7589 H         1 <0>         0.4008
     24 H5         -1.3815   -1.3647    0.6971 H         1 <0>         0.3995
     25 H6          3.7872    0.9382    2.1132 H         1 <0>         0.4057
     26 H7          2.8327   -0.2822    2.7630 H         1 <0>         0.3993
     27 H8          4.7119    5.2736    0.1810 H         1 <0>         0.1085
     28 H9          5.6392    3.7560    0.2523 H         1 <0>         0.1198
     29 H10         6.8831    5.4822   -1.4018 H         1 <0>         0.4027
     30 H11         6.5338    5.1928   -3.0194 H         1 <0>         0.4035
     31 H12         2.4088    5.1875   -0.6404 H         1 <0>         0.1097
     32 H13         1.5542    3.6262   -0.6288 H         1 <0>         0.1212
     33 H14         0.1598    5.4148    0.8270 H         1 <0>         0.4023
     34 H15         0.4468    5.2700    2.4761 H         1 <0>         0.4032
@<TRIPOS>BOND
     1    1    6 ar
     2    1    2 ar
     3    1   20 1
     4    2    3 ar
     5    2   21 1
     6    3    4 ar
     7    3    9 1
     8    4    5 ar
     9    4    8 1
    10    5    6 ar
    11    5   22 1
    12    6    7 1
    13    7   23 1
    14    7   24 1
    15    8   25 1
    16    8   26 1
    17    9   10 2
    18    9   11 am
    19   11   12 1
    20   11   16 1
    21   12   13 1
    22   12   27 1
    23   12   28 1
    24   13   14 2
    25   13   15 am
    26   15   29 1
    27   15   30 1
    28   16   17 1
    29   16   31 1
    30   16   32 1
    31   17   18 2
    32   17   19 am
    33   19   33 1
    34   19   34 1
@<TRIPOS>MOLECULE
ZINC63333464
   42    44     0     0     0
SMALL
USER_CHARGES

@<TRIPOS>ATOM
      1 C1         -0.0163    1.3482    0.0095 C.ar      1 <0>        -0.1426
      2 C2          1.1658    2.1014    0.0022 C.ar      1 <0>         0.0557
      3 C3          2.3912    1.5352   -0.0125 C.ar      1 <0>        -0.2079
      4 C4          2.5288    0.1198   -0.0218 C.ar      1 <0>         0.3292
      5 N1          3.5868   -0.6543   -0.0369 N.pl3     1 <0>        -0.5820
      6 C5          3.1432   -2.0528   -0.0408 C.3       1 <0>         0.0621
      7 C6          1.6315   -2.0084   -0.0255 C.2       1 <0>         0.0570
      8 C7          1.2951   -0.6984   -0.0144 C.ar      1 <0>        -0.1583
      9 C8          0.0021   -0.0041    0.0020 C.ar      1 <0>        -0.0215
     10 C9          0.6905   -3.1856   -0.0239 C.3       1 <0>        -0.1011
     11 C10         0.4565   -3.6534   -1.4617 C.3       1 <0>         0.1212
     12 N2         -0.4583   -4.7977   -1.4602 N.am      1 <0>        -0.7075
     13 C11        -0.8107   -5.3803   -2.6233 C.2       1 <0>         0.5395
     14 O1         -0.3706   -4.9572   -3.6712 O.2       1 <0>        -0.5062
     15 C12        -1.7517   -6.5574   -2.6217 C.3       1 <0>         0.2123
     16 H1         -2.0773   -6.7835   -3.6370 H         1 <0>         0.1068
     17 N3         -1.0983   -7.7390   -2.0144 N.3       1 <0>        -0.6713
     18 C13        -2.1467   -8.4404   -1.2427 C.3       1 <0>         0.1693
     19 H2         -1.8738   -8.4810   -0.1882 H         1 <0>         0.1386
     20 N4         -3.3818   -7.6411   -1.4209 N.3       1 <0>        -0.5072
     21 O2         -2.8924   -6.2889   -1.7751 O.3       1 <0>        -0.1940
     22 C14        -2.3479   -9.8549   -1.7901 C.3       1 <0>        -0.0119
     23 N5         -2.7560   -9.7812   -3.1993 N.4       1 <0>        -0.6390
     24 H3         -0.9665    1.8612    0.0259 H         1 <0>         0.1598
     25 H4          1.0933    3.1789    0.0083 H         1 <0>         0.1639
     26 H5          3.2717    2.1606   -0.0175 H         1 <0>         0.1633
     27 H6          3.4952   -2.5561   -0.9413 H         1 <0>         0.1734
     28 H7          3.5129   -2.5667    0.8465 H         1 <0>         0.1747
     29 H8         -0.9210   -0.5647    0.0081 H         1 <0>         0.1597
     30 H9          1.1268   -3.9987    0.5563 H         1 <0>         0.1183
     31 H10        -0.2596   -2.8905    0.4214 H         1 <0>         0.1157
     32 H11         0.0203   -2.8403   -2.0419 H         1 <0>         0.0850
     33 H12         1.4067   -3.9484   -1.9070 H         1 <0>         0.0843
     34 H13        -0.8103   -5.1361   -0.6220 H         1 <0>         0.4110
     35 H14        -0.7080   -8.3409   -2.7240 H         1 <0>         0.3634
     36 H15        -3.9238   -7.6186   -0.5701 H         1 <0>         0.3946
     37 H16        -1.4139  -10.4113   -1.7110 H         1 <0>         0.1575
     38 H17        -3.1222  -10.3609   -1.2135 H         1 <0>         0.1573
     39 H18        -3.6206   -9.2661   -3.2726 H         1 <0>         0.4453
     40 H19        -2.0392   -9.3128   -3.7330 H         1 <0>         0.4252
     41 H20         4.5087   -0.3528   -0.0446 H         1 <0>         0.4580
     42 H21        -2.8887  -10.7140   -3.5603 H         1 <0>         0.4484
@<TRIPOS>BOND
     1    1    9 ar
     2    1    2 ar
     3    1   24 1
     4    2    3 ar
     5    2   25 1
     6    3    4 ar
     7    3   26 1
     8    4    8 ar
     9    4    5 2
    10    5    6 1
    11    5   41 1
    12    6    7 1
    13    6   27 1
    14    6   28 1
    15    7    8 2
    16    7   10 1
    17    8    9 ar
    18    9   29 1
    19   10   11 1
    20   10   30 1
    21   10   31 1
    22   11   12 1
    23   11   32 1
    24   11   33 1
    25   12   13 am
    26   12   34 1
    27   13   14 2
    28   13   15 1
    29   15   16 1
    30   15   21 1
    31   15   17 1
    32   17   18 1
    33   17   35 1
    34   18   19 1
    35   18   20 1
    36   18   22 1
    37   20   21 1
    38   20   36 1
    39   22   23 1
    40   22   37 1
    41   22   38 1
    42   23   39 1
    43   23   40 1
    44   23   42 1
@<TRIPOS>MOLECULE
ZINC19721892
   23    23     0     0     0
SMALL
USER_CHARGES
2-(4-methylthiazol-2-yl)propan-2-amine
@<TRIPOS>ATOM
      1 C1         -0.0127    1.0858    0.0080 C.3       1 <0>        -0.0905
      2 C2         -0.7181    1.5718    1.2479 C.2       1 <0>         0.0507
      3 C3         -0.0283    1.8071    2.3931 C.2       1 <0>        -0.1731
      4 S1         -1.3512    2.3420    3.4690 S.3       1 <0>         0.1327
      5 C4         -2.6456    2.2017    2.3198 C.2       1 <0>        -0.0226
      6 N1         -2.0175    1.7837    1.2452 N.2       1 <0>        -0.4734
      7 C5         -4.1126    2.4915    2.5063 C.3       1 <0>         0.1865
      8 C6         -4.3611    2.9627    3.9406 C.3       1 <0>        -0.1881
      9 C7         -4.5448    3.5856    1.5280 C.3       1 <0>        -0.1730
     10 N2         -4.8892    1.2711    2.2503 N.4       1 <0>        -0.6786
     11 H1          1.0612    0.9727    0.2177 H         1 <0>         0.0838
     12 H2         -0.1531    1.8152   -0.8034 H         1 <0>         0.0818
     13 H3         -0.4314    0.1149   -0.2953 H         1 <0>         0.0805
     14 H4          1.0268    1.7007    2.5973 H         1 <0>         0.2105
     15 H5         -5.4320    3.1742    4.0767 H         1 <0>         0.1031
     16 H6         -3.7796    3.8765    4.1323 H         1 <0>         0.1102
     17 H7         -4.0504    2.1761    4.6440 H         1 <0>         0.0887
     18 H8         -5.6157    3.7971    1.6642 H         1 <0>         0.0945
     19 H9         -4.3662    3.2468    0.4968 H         1 <0>         0.0905
     20 H10        -3.9633    4.4994    1.7197 H         1 <0>         0.1051
     21 H11        -5.9600    1.4826    2.3864 H         1 <0>         0.4614
     22 H12        -4.5785    0.4845    2.9537 H         1 <0>         0.4560
     23 H13        -4.7105    0.9324    1.2191 H         1 <0>         0.4631
@<TRIPOS>BOND
     1    1    2 1
     2    1   11 1
     3    1   12 1
     4    1   13 1
     5    2    6 1
     6    2    3 2
     7    3    4 1
     8    3   14 1
     9    4    5 1
    10    5    6 2
    11    5    7 1
    12    7    8 1
    13    7    9 1
    14    7   10 1
    15    8   15 1
    16    8   16 1
    17    8   17 1
    18    9   18 1
    19    9   19 1
    20    9   20 1
    21   10   21 1
    22   10   22 1
    23   10   23 1
@<TRIPOS>MOLECULE
ZINC41202447
   35    36     0     0     0
SMALL
USER_CHARGES

@<TRIPOS>ATOM
      1 C1         -0.4042    1.6103   -0.4191 C.3       1 <0>        -0.1286
      2 C2          1.0596    2.0780   -0.2249 C.3       1 <0>        -0.1298
      3 C3          1.8687    0.9861   -0.9679 C.3       1 <0>        -0.1141
      4 C4          1.1162   -0.3231   -0.6521 C.3       1 <0>        -0.1269
      5 C5         -0.3289    0.0738   -0.3032 C.3       1 <0>        -0.1197
      6 C6          1.1265   -1.2417   -1.8756 C.3       1 <0>         0.1183
      7 H1          0.5583   -0.7788   -2.6824 H         1 <0>         0.1092
      8 C7          0.4916   -2.5849   -1.5101 C.3       1 <0>        -0.1368
      9 C8          0.3874   -3.4598   -2.7627 C.3       1 <0>        -0.1420
     10 C9         -0.1745   -4.8296   -2.3762 C.3       1 <0>        -0.0074
     11 N1          0.7170   -5.4710   -1.4023 N.4       1 <0>        -0.5054
     12 C10         0.7654   -4.6738   -0.1708 C.3       1 <0>        -0.0042
     13 C11         1.3634   -3.2980   -0.4725 C.3       1 <0>        -0.1531
     14 O1          2.4741   -1.4522   -2.3019 O.3       1 <0>        -0.5515
     15 H2         -1.0428    2.0211    0.3629 H         1 <0>         0.0687
     16 H3         -0.7701    1.9011   -1.4038 H         1 <0>         0.0677
     17 H4          1.2171    3.0544   -0.6831 H         1 <0>         0.0707
     18 H5          1.3211    2.0998    0.8330 H         1 <0>         0.0677
     19 H6          1.8698    1.1760   -2.0412 H         1 <0>         0.0723
     20 H7          2.8888    0.9412   -0.5865 H         1 <0>         0.0667
     21 H8          1.5807   -0.8254    0.1964 H         1 <0>         0.0746
     22 H9         -0.5658   -0.2358    0.7147 H         1 <0>         0.0659
     23 H10        -1.0229   -0.3880   -1.0054 H         1 <0>         0.0641
     24 H11        -0.5032   -2.4175   -1.0972 H         1 <0>         0.1000
     25 H12        -0.2768   -2.9844   -3.4845 H         1 <0>         0.1121
     26 H13         1.3765   -3.5833   -3.2037 H         1 <0>         0.0961
     27 H14        -1.1636   -4.7049   -1.9356 H         1 <0>         0.1295
     28 H15        -0.2501   -5.4550   -3.2657 H         1 <0>         0.1340
     29 H16         0.3723   -6.3953   -1.1901 H         1 <0>         0.4322
     30 H17        -0.2438   -4.5525    0.2228 H         1 <0>         0.1307
     31 H18         1.3835   -5.1842    0.5678 H         1 <0>         0.1342
     32 H19         2.3728   -3.4182   -0.8659 H         1 <0>         0.0906
     33 H20         1.3968   -2.7070    0.4428 H         1 <0>         0.1155
     34 H21         3.0389   -1.8620   -1.6325 H         1 <0>         0.3707
     35 H22         1.6447   -5.5417   -1.7927 H         1 <0>         0.4283
@<TRIPOS>BOND
     1    1    5 1
     2    1    2 1
     3    1   15 1
     4    1   16 1
     5    2    3 1
     6    2   17 1
     7    2   18 1
     8    3    4 1
     9    3   19 1
    10    3   20 1
    11    4    5 1
    12    4    6 1
    13    4   21 1
    14    5   22 1
    15    5   23 1
    16    6    7 1
    17    6    8 1
    18    6   14 1
    19    8   13 1
    20    8    9 1
    21    8   24 1
    22    9   10 1
    23    9   25 1
    24    9   26 1
    25   10   11 1
    26   10   27 1
    27   10   28 1
    28   11   12 1
    29   11   29 1
    30   11   35 1
    31   12   13 1
    32   12   30 1
    33   12   31 1
    34   13   32 1
    35   13   33 1
    36   14   34 1
@<TRIPOS>MOLECULE
ZINC52126004
   27    27     0     0     0
SMALL
USER_CHARGES

@<TRIPOS>ATOM
      1 C1         -0.0187    1.5258    0.0104 C.3       1 <0>        -0.1605
      2 C2          0.0021   -0.0041    0.0020 C.3       1 <0>        -0.1202
      3 C3         -1.4333   -0.5336    0.0129 C.3       1 <0>        -0.0624
      4 H1         -1.9701   -0.1109    0.8621 H         1 <0>         0.0852
      5 C4         -2.1352   -0.1312   -1.2857 C.3       1 <0>        -0.1554
      6 C5         -1.4133   -2.0590    0.1302 C.3       1 <0>        -0.0858
      7 C6         -1.9247   -2.6740    1.4345 C.3       1 <0>        -0.1472
      8 C7         -2.7607   -2.7832    0.1578 C.3       1 <0>        -0.0817
      9 H2         -3.6615   -2.1729    0.0924 H         1 <0>         0.1793
     10 N1         -2.8374   -4.0983   -0.4923 N.4       1 <0>        -0.6059
     11 C8         -0.2490   -2.7597   -0.5729 C.3       1 <0>        -0.1527
     12 H3          1.0039    1.9031    0.0027 H         1 <0>         0.0621
     13 H4         -0.5459    1.8868   -0.8726 H         1 <0>         0.0598
     14 H5         -0.5289    1.8773    0.9072 H         1 <0>         0.0573
     15 H6          0.5123   -0.3556   -0.8948 H         1 <0>         0.0700
     16 H7          0.5293   -0.3651    0.8851 H         1 <0>         0.0683
     17 H8         -1.5984   -0.5539   -2.1349 H         1 <0>         0.0602
     18 H9         -3.1578   -0.5085   -1.2779 H         1 <0>         0.0525
     19 H10        -2.1495    0.9555   -1.3693 H         1 <0>         0.0730
     20 H11        -1.4315   -3.5779    1.7920 H         1 <0>         0.1228
     21 H12        -2.2754   -1.9919    2.2090 H         1 <0>         0.1340
     22 H13        -2.1861   -4.7301   -0.0511 H         1 <0>         0.4322
     23 H14        -3.7737   -4.4637   -0.4027 H         1 <0>         0.4406
     24 H15         0.6412   -2.1334   -0.5136 H         1 <0>         0.1003
     25 H16        -0.0536   -3.7158   -0.0872 H         1 <0>         0.0665
     26 H17        -0.5050   -2.9291   -1.6187 H         1 <0>         0.0718
     27 H18        -2.6052   -4.0043   -1.4697 H         1 <0>         0.4359
@<TRIPOS>BOND
     1    1    2 1
     2    1   12 1
     3    1   13 1
     4    1   14 1
     5    2    3 1
     6    2   15 1
     7    2   16 1
     8    3    4 1
     9    3    5 1
    10    3    6 1
    11    5   17 1
    12    5   18 1
    13    5   19 1
    14    6    8 1
    15    6    7 1
    16    6   11 1
    17    7    8 1
    18    7   20 1
    19    7   21 1
    20    8    9 1
    21    8   10 1
    22   10   22 1
    23   10   23 1
    24   10   27 1
    25   11   24 1
    26   11   25 1
    27   11   26 1
@<TRIPOS>MOLECULE
ZINC49709057
   36    37     0     0     0
SMALL
USER_CHARGES

@<TRIPOS>ATOM
      1 C1         -0.2981    1.3668   -0.0215 C.3       1 <0>        -0.1555
      2 C2         -0.1019   -0.1497    0.0289 C.3       1 <0>         0.0714
      3 H1         -1.0637   -0.6350    0.1950 H         1 <0>         0.0347
      4 C3          0.4899   -0.6316   -1.2976 C.3       1 <0>        -0.1385
      5 C4          0.7032   -2.1466   -1.2354 C.3       1 <0>         0.0276
      6 H2          1.1648   -2.4879   -2.1619 H         1 <0>         0.1476
      7 C5          1.6205   -2.4769   -0.0547 C.3       1 <0>        -0.1409
      8 C6          0.9959   -1.9415    1.2357 C.3       1 <0>         0.0300
      9 N1          0.8132   -0.4886    1.1262 N.3       1 <0>        -0.5218
     10 C7          0.3446    0.0801    2.3970 C.3       1 <0>         0.0744
     11 C8         -0.8953   -0.6921    2.9121 C.3       1 <0>        -0.1627
     12 C9         -0.8679   -0.4064    4.4342 C.3       1 <0>        -0.1227
     13 C10         0.6313   -0.4317    4.7969 C.3       1 <0>        -0.1291
     14 C11         1.4022   -0.1224    3.5017 C.3       1 <0>        -0.1196
     15 N2         -0.5912   -2.8176   -1.0556 N.4       1 <0>        -0.6401
     16 H3          0.6742    1.8577   -0.0640 H         1 <0>         0.0769
     17 H4         -0.8766    1.6292   -0.9072 H         1 <0>         0.0689
     18 H5         -0.8316    1.6940    0.8710 H         1 <0>         0.0677
     19 H6         -0.1966   -0.3938   -2.1102 H         1 <0>         0.0953
     20 H7          1.4453   -0.1365   -1.4710 H         1 <0>         0.1226
     21 H8          1.7418   -3.5575    0.0207 H         1 <0>         0.0952
     22 H9          2.5938   -2.0108   -0.2086 H         1 <0>         0.1218
     23 H10         0.0289   -2.4183    1.3961 H         1 <0>         0.0332
     24 H11         1.6535   -2.1625    2.0764 H         1 <0>         0.1075
     25 H12         0.1149    1.1390    2.2784 H         1 <0>         0.1031
     26 H13        -1.8080   -0.3016    2.4621 H         1 <0>         0.0661
     27 H14        -0.7936   -1.7598    2.7176 H         1 <0>         0.0671
     28 H15        -1.2952    0.5737    4.6461 H         1 <0>         0.0712
     29 H16        -1.4051   -1.1835    4.9779 H         1 <0>         0.0690
     30 H17         0.8462    0.3268    5.5496 H         1 <0>         0.0708
     31 H18         0.9086   -1.4176    5.1701 H         1 <0>         0.0658
     32 H19         2.0537   -0.9581    3.2462 H         1 <0>         0.0711
     33 H20         1.9913    0.7864    3.6257 H         1 <0>         0.0735
     34 H21        -1.1961   -2.5951   -1.8320 H         1 <0>         0.4361
     35 H22        -0.4498   -3.8158   -1.0147 H         1 <0>         0.4360
     36 H23        -1.0169   -2.5027   -0.1967 H         1 <0>         0.4265
@<TRIPOS>BOND
     1    1    2 1
     2    1   16 1
     3    1   17 1
     4    1   18 1
     5    2    3 1
     6    2    9 1
     7    2    4 1
     8    4    5 1
     9    4   19 1
    10    4   20 1
    11    5    6 1
    12    5    7 1
    13    5   15 1
    14    7    8 1
    15    7   21 1
    16    7   22 1
    17    8    9 1
    18    8   23 1
    19    8   24 1
    20    9   10 1
    21   10   14 1
    22   10   11 1
    23   10   25 1
    24   11   12 1
    25   11   26 1
    26   11   27 1
    27   12   13 1
    28   12   28 1
    29   12   29 1
    30   13   14 1
    31   13   30 1
    32   13   31 1
    33   14   32 1
    34   14   33 1
    35   15   34 1
    36   15   35 1
    37   15   36 1
@<TRIPOS>MOLECULE
ZINC62994522
   30    30     0     0     0
SMALL
USER_CHARGES

@<TRIPOS>ATOM
      1 C1         -0.0187    1.5258    0.0104 C.3       1 <0>        -0.1545
      2 C2          0.0021   -0.0041    0.0020 C.3       1 <0>        -0.0871
      3 H1          0.5123   -0.3556   -0.8948 H         1 <0>         0.0815
      4 C3         -1.4333   -0.5336    0.0129 C.3       1 <0>        -0.1254
      5 C4         -1.4126   -2.0635    0.0045 C.3       1 <0>        -0.1209
      6 C5         -0.6726   -2.5703    1.2440 C.3       1 <0>        -0.1144
      7 C6          0.7628   -2.0407    1.2331 C.3       1 <0>        -0.0872
      8 H2          1.2730   -2.3923    0.3363 H         1 <0>         0.1331
      9 C7          0.7421   -0.5109    1.2415 C.3       1 <0>        -0.1226
     10 C8          1.4917   -2.5400    2.4540 C.cat     1 <0>         0.5349
     11 N1          1.4741   -1.8472    3.5459 N.pl3     1 <0>        -0.7303
     12 N2          2.1729   -3.7277    2.4072 N.pl3     1 <0>        -0.6640
     13 C9          2.8815   -4.2130    3.5941 C.3       1 <0>         0.0328
     14 H3          1.0039    1.9031    0.0027 H         1 <0>         0.0595
     15 H4         -0.5459    1.8868   -0.8726 H         1 <0>         0.0664
     16 H5         -0.5289    1.8773    0.9072 H         1 <0>         0.0588
     17 H6         -1.9435   -0.1821    0.9097 H         1 <0>         0.0688
     18 H7         -1.9605   -0.1726   -0.8702 H         1 <0>         0.0775
     19 H8         -2.4352   -2.4408    0.0122 H         1 <0>         0.0817
     20 H9         -0.9024   -2.4150   -0.8923 H         1 <0>         0.0738
     21 H10        -1.1828   -2.2188    2.1408 H         1 <0>         0.0785
     22 H11        -0.6578   -3.6602    1.2380 H         1 <0>         0.0802
     23 H12         1.7647   -0.1336    1.2338 H         1 <0>         0.0837
     24 H13         0.2319   -0.1594    2.1383 H         1 <0>         0.0755
     25 H14         1.9433   -2.1685    4.3318 H         1 <0>         0.4294
     26 H15         2.1861   -4.2473    1.5882 H         1 <0>         0.4434
     27 H16         3.3603   -5.1655    3.3672 H         1 <0>         0.1202
     28 H17         3.6391   -3.4863    3.8874 H         1 <0>         0.0900
     29 H18         2.1722   -4.3482    4.4107 H         1 <0>         0.0896
     30 H19         0.9918   -1.0063    3.5791 H         1 <0>         0.4473
@<TRIPOS>BOND
     1    1    2 1
     2    1   14 1
     3    1   15 1
     4    1   16 1
     5    2    3 1
     6    2    9 1
     7    2    4 1
     8    4    5 1
     9    4   17 1
    10    4   18 1
    11    5    6 1
    12    5   19 1
    13    5   20 1
    14    6    7 1
    15    6   21 1
    16    6   22 1
    17    7    8 1
    18    7    9 1
    19    7   10 1
    20    9   23 1
    21    9   24 1
    22   10   11 2
    23   10   12 1
    24   11   25 1
    25   11   30 1
    26   12   13 1
    27   12   26 1
    28   13   27 1
    29   13   28 1
    30   13   29 1
@<TRIPOS>MOLECULE
ZINC19514842
   37    37     0     0     0
SMALL
USER_CHARGES
1-amino-N-isopropyl-N-methyl-cyclohexane-1-carboxamide
@<TRIPOS>ATOM
      1 C1         -4.3779   -0.2653    1.3284 C.3       1 <0>        -0.1677
      2 C2         -4.3081    0.5287    0.0224 C.3       1 <0>         0.1291
      3 C3         -5.4290    1.5698   -0.0020 C.3       1 <0>        -0.1688
      4 N1         -3.0116    1.2048   -0.0693 N.am      1 <0>        -0.6105
      5 C4         -2.6168    2.1741    0.9558 C.3       1 <0>         0.0343
      6 C5         -2.1821    0.9350   -1.0967 C.2       1 <0>         0.5032
      7 O1         -2.5416    0.1953   -1.9881 O.2       1 <0>        -0.4783
      8 C6         -0.8081    1.5524   -1.1380 C.3       1 <0>         0.0617
      9 C7          0.0479    0.8231   -2.1754 C.3       1 <0>        -0.1241
     10 C8          1.4429    1.4500   -2.2173 C.3       1 <0>        -0.1323
     11 C9          1.3271    2.9270   -2.5991 C.3       1 <0>        -0.1374
     12 C10         0.4712    3.6564   -1.5616 C.3       1 <0>        -0.1300
     13 C11        -0.9239    3.0295   -1.5197 C.3       1 <0>        -0.1414
     14 N2         -0.1792    1.4364    0.1846 N.4       1 <0>        -0.7035
     15 H1         -3.5720   -1.0138    1.3459 H         1 <0>         0.0608
     16 H2         -5.3514   -0.7729    1.3973 H         1 <0>         0.0837
     17 H3         -4.2605    0.4200    2.1808 H         1 <0>         0.0636
     18 H4         -4.3852   -0.1439   -0.8446 H         1 <0>         0.1123
     19 H5         -5.3788    2.1406   -0.9409 H         1 <0>         0.0638
     20 H6         -5.3116    2.2550    0.8505 H         1 <0>         0.0635
     21 H7         -6.4024    1.0622    0.0669 H         1 <0>         0.0822
     22 H8         -1.6196    2.5731    0.7184 H         1 <0>         0.0773
     23 H9         -2.5894    1.6788    1.9376 H         1 <0>         0.0971
     24 H10        -3.3450    2.9981    0.9811 H         1 <0>         0.1078
     25 H11         0.1312   -0.2388   -1.9008 H         1 <0>         0.0942
     26 H12        -0.4230    0.9099   -3.1657 H         1 <0>         0.1185
     27 H13         1.9138    1.3631   -1.2270 H         1 <0>         0.0597
     28 H14         2.0583    0.9257   -2.9632 H         1 <0>         0.0980
     29 H15         2.3301    3.3776   -2.6292 H         1 <0>         0.0851
     30 H16         0.8562    3.0139   -3.5894 H         1 <0>         0.0823
     31 H17         0.9421    3.5695   -0.5713 H         1 <0>         0.0607
     32 H18         0.3879    4.7183   -1.8361 H         1 <0>         0.0984
     33 H19        -1.3948    3.1165   -2.5100 H         1 <0>         0.1169
     34 H20        -1.5392    3.5538   -0.7738 H         1 <0>         0.0916
     35 H21         0.8238    1.8871    0.1545 H         1 <0>         0.4509
     36 H22        -0.0959    0.3745    0.4591 H         1 <0>         0.4537
     37 H23        -0.7946    1.9608    0.9305 H         1 <0>         0.4436
@<TRIPOS>BOND
     1    1    2 1
     2    1   15 1
     3    1   16 1
     4    1   17 1
     5    2    3 1
     6    2    4 1
     7    2   18 1
     8    3   19 1
     9    3   20 1
    10    3   21 1
    11    4    5 1
    12    4    6 am
    13    5   22 1
    14    5   23 1
    15    5   24 1
    16    6    7 2
    17    6    8 1
    18    8   13 1
    19    8    9 1
    20    8   14 1
    21    9   10 1
    22    9   25 1
    23    9   26 1
    24   10   11 1
    25   10   27 1
    26   10   28 1
    27   11   12 1
    28   11   29 1
    29   11   30 1
    30   12   13 1
    31   12   31 1
    32   12   32 1
    33   13   33 1
    34   13   34 1
    35   14   35 1
    36   14   36 1
    37   14   37 1
@<TRIPOS>MOLECULE
ZINC39136090
   30    30     0     0     0
SMALL
USER_CHARGES

@<TRIPOS>ATOM
      1 C1         -0.0184    1.5028    0.0103 C.3       1 <0>        -0.1441
      2 C2          0.0021   -0.0041    0.0020 C.2       1 <0>        -0.0197
      3 C3         -1.1329   -0.6265    0.0043 C.2       1 <0>        -0.2460
      4 C4         -1.2724   -2.1206    0.0075 C.3       1 <0>         0.1157
      5 C5          0.0450   -2.7740   -0.4159 C.3       1 <0>        -0.1407
      6 C6          1.1808   -2.1538    0.4076 C.3       1 <0>        -0.1289
      7 C7          1.3369   -0.6896   -0.0144 C.3       1 <0>        -0.1120
      8 C8         -2.3777   -2.5289   -0.9685 C.3       1 <0>         0.0267
      9 H1         -2.5416   -3.6045   -0.9025 H         1 <0>         0.1114
     10 C9         -3.6708   -1.7931   -0.6114 C.3       1 <0>        -0.1692
     11 C10        -1.9757   -2.1770   -2.3401 C.1       1 <0>        -0.2186
     12 C11        -1.6551   -1.8963   -3.4340 C.1       1 <0>        -0.1345
     13 N1         -1.6282   -2.5735    1.3589 N.4       1 <0>        -0.6329
     14 H2          1.0042    1.8801    0.0026 H         1 <0>         0.0765
     15 H3         -0.5455    1.8639   -0.8728 H         1 <0>         0.0822
     16 H4         -0.5286    1.8543    0.9071 H         1 <0>         0.0821
     17 H5         -2.0356   -0.0336    0.0042 H         1 <0>         0.1356
     18 H6         -0.0008   -3.8466   -0.2276 H         1 <0>         0.0927
     19 H7          0.2198   -2.5922   -1.4764 H         1 <0>         0.1150
     20 H8          0.9365   -2.2089    1.4685 H         1 <0>         0.0626
     21 H9          2.1093   -2.6909    0.2140 H         1 <0>         0.0961
     22 H10         1.7550   -0.6423   -1.0199 H         1 <0>         0.0993
     23 H11         2.0104   -0.1857    0.6788 H         1 <0>         0.0954
     24 H12        -4.4582   -2.0840   -1.3067 H         1 <0>         0.0878
     25 H13        -3.9685   -2.0537    0.4043 H         1 <0>         0.0627
     26 H14        -3.5069   -0.7176   -0.6773 H         1 <0>         0.0805
     27 H15        -1.3683   -1.6453   -4.4124 H         1 <0>         0.2252
     28 H16        -2.5025   -2.1525    1.6354 H         1 <0>         0.4329
     29 H17        -1.7225   -3.5781    1.3630 H         1 <0>         0.4327
     30 H18        -0.9041   -2.3010    2.0065 H         1 <0>         0.4337
@<TRIPOS>BOND
     1    1    2 1
     2    1   14 1
     3    1   15 1
     4    1   16 1
     5    2    7 1
     6    2    3 2
     7    3    4 1
     8    3   17 1
     9    4    5 1
    10    4    8 1
    11    4   13 1
    12    5    6 1
    13    5   18 1
    14    5   19 1
    15    6    7 1
    16    6   20 1
    17    6   21 1
    18    7   22 1
    19    7   23 1
    20    8    9 1
    21    8   10 1
    22    8   11 1
    23   10   24 1
    24   10   25 1
    25   10   26 1
    26   11   12 3
    27   12   27 1
    28   13   28 1
    29   13   29 1
    30   13   30 1
@<TRIPOS>MOLECULE
ZINC43652450
   40    41     0     0     0
SMALL
USER_CHARGES

@<TRIPOS>ATOM
      1 C1         -0.0187    1.5258    0.0104 C.3       1 <0>        -0.1542
      2 C2          0.0021   -0.0041    0.0020 C.3       1 <0>        -0.0974
      3 H1          0.5123   -0.3556   -0.8948 H         1 <0>         0.0766
      4 C3         -1.4333   -0.5336    0.0129 C.3       1 <0>        -0.1144
      5 C4         -1.4126   -2.0635    0.0045 C.3       1 <0>        -0.1404
      6 C5         -0.6726   -2.5703    1.2440 C.3       1 <0>         0.0291
      7 H2         -1.1828   -2.2188    2.1408 H         1 <0>         0.1419
      8 C6          0.7628   -2.0407    1.2331 C.3       1 <0>        -0.1081
      9 H3          1.2730   -2.3923    0.3363 H         1 <0>         0.0976
     10 C7          0.7421   -0.5109    1.2415 C.3       1 <0>        -0.1097
     11 C8          1.5028   -2.5476    2.4727 C.3       1 <0>        -0.1232
     12 C9          2.9707   -2.1225    2.3996 C.3       1 <0>        -0.0937
     13 C10         3.6807   -2.8692    1.2515 C.3       1 <0>        -0.1210
     14 C11         5.0992   -3.1549    1.8041 C.3       1 <0>        -0.1294
     15 C12         4.8257   -3.4890    3.2916 C.3       1 <0>        -0.1279
     16 C13         3.6988   -2.5165    3.6967 C.3       1 <0>        -0.1241
     17 N1         -0.6526   -4.0392    1.2359 N.4       1 <0>        -0.6389
     18 H4          1.0039    1.9031    0.0027 H         1 <0>         0.0616
     19 H5         -0.5459    1.8868   -0.8726 H         1 <0>         0.0619
     20 H6         -0.5289    1.8773    0.9072 H         1 <0>         0.0590
     21 H7         -1.9435   -0.1821    0.9097 H         1 <0>         0.0754
     22 H8         -1.9605   -0.1726   -0.8702 H         1 <0>         0.0852
     23 H9         -2.4352   -2.4408    0.0122 H         1 <0>         0.0886
     24 H10        -0.9024   -2.4150   -0.8923 H         1 <0>         0.0873
     25 H11         1.7647   -0.1336    1.2338 H         1 <0>         0.0874
     26 H12         0.2319   -0.1594    2.1383 H         1 <0>         0.0755
     27 H13         1.0459   -2.1240    3.3671 H         1 <0>         0.0807
     28 H14         1.4411   -3.6351    2.5133 H         1 <0>         0.0564
     29 H15         3.0401   -1.0457    2.2449 H         1 <0>         0.0833
     30 H16         3.1640   -3.8022    1.0263 H         1 <0>         0.0594
     31 H17         3.7368   -2.2391    0.3638 H         1 <0>         0.0671
     32 H18         5.5485   -4.0065    1.2932 H         1 <0>         0.0691
     33 H19         5.7328   -2.2723    1.7166 H         1 <0>         0.0710
     34 H20         4.4939   -4.5220    3.3958 H         1 <0>         0.0641
     35 H21         5.7174   -3.3112    3.8927 H         1 <0>         0.0695
     36 H22         4.1222   -1.6312    4.1710 H         1 <0>         0.0690
     37 H23         3.0063   -3.0106    4.3782 H         1 <0>         0.0640
     38 H24        -0.1804   -4.3646    0.4058 H         1 <0>         0.4325
     39 H25        -0.1646   -4.3734    2.0534 H         1 <0>         0.4334
     40 H26        -1.5992   -4.3884    1.2431 H         1 <0>         0.4358
@<TRIPOS>BOND
     1    1    2 1
     2    1   18 1
     3    1   19 1
     4    1   20 1
     5    2    3 1
     6    2   10 1
     7    2    4 1
     8    4    5 1
     9    4   21 1
    10    4   22 1
    11    5    6 1
    12    5   23 1
    13    5   24 1
    14    6    7 1
    15    6    8 1
    16    6   17 1
    17    8    9 1
    18    8   10 1
    19    8   11 1
    20   10   25 1
    21   10   26 1
    22   11   12 1
    23   11   27 1
    24   11   28 1
    25   12   16 1
    26   12   13 1
    27   12   29 1
    28   13   14 1
    29   13   30 1
    30   13   31 1
    31   14   15 1
    32   14   32 1
    33   14   33 1
    34   15   16 1
    35   15   34 1
    36   15   35 1
    37   16   36 1
    38   16   37 1
    39   17   38 1
    40   17   39 1
    41   17   40 1
@<TRIPOS>MOLECULE
ZINC54082056
   30    31     0     0     0
SMALL
USER_CHARGES

@<TRIPOS>ATOM
      1 C1         -0.0187    1.5258    0.0104 C.3       1 <0>        -0.1694
      2 C2          0.0021   -0.0041    0.0020 C.3       1 <0>         0.1789
      3 C3          0.7309   -0.5033    1.2229 C.2       1 <0>        -0.0252
      4 N1          1.9685   -0.2712    1.5833 N.2       1 <0>        -0.4614
      5 C4          2.4681   -0.7836    2.6902 C.2       1 <0>         0.0349
      6 C5          1.6418   -1.5607    3.4362 C.2       1 <0>        -0.1629
      7 S1          0.1498   -1.4883    2.4577 S.3       1 <0>         0.0994
      8 C6          0.7182   -0.4975   -1.2568 C.3       1 <0>        -0.1010
      9 C7          0.6386   -2.0412   -1.3559 C.3       1 <0>        -0.1313
     10 C8          0.8290   -2.2966   -2.8717 C.3       1 <0>        -0.1253
     11 C9          0.0609   -1.1430   -3.5492 C.3       1 <0>        -0.1314
     12 C10        -0.0095    0.0009   -2.5224 C.3       1 <0>        -0.1277
     13 N2         -1.3761   -0.5125    0.0124 N.4       1 <0>        -0.6386
     14 H1          1.0039    1.9031    0.0027 H         1 <0>         0.1178
     15 H2         -0.5459    1.8868   -0.8726 H         1 <0>         0.0968
     16 H3         -0.5289    1.8773    0.9072 H         1 <0>         0.0863
     17 H4          3.4883   -0.5943    2.9898 H         1 <0>         0.1928
     18 H5          1.8327   -2.0765    4.3657 H         1 <0>         0.2144
     19 H6          1.7566   -0.1662   -1.2584 H         1 <0>         0.1326
     20 H7          1.4397   -2.5069   -0.7820 H         1 <0>         0.0858
     21 H8         -0.3354   -2.3999   -1.0231 H         1 <0>         0.0562
     22 H9          1.8859   -2.2578   -3.1352 H         1 <0>         0.0797
     23 H10         0.3996   -3.2581   -3.1534 H         1 <0>         0.0800
     24 H11         0.5939   -0.8123   -4.4406 H         1 <0>         0.0806
     25 H12        -0.9448   -1.4691   -3.8144 H         1 <0>         0.0737
     26 H13        -1.0494    0.2300   -2.2894 H         1 <0>         0.0563
     27 H14         0.4893    0.8867   -2.9155 H         1 <0>         0.0930
     28 H15        -1.8641   -0.1783   -0.8050 H         1 <0>         0.4442
     29 H16        -1.3624   -1.5214    0.0069 H         1 <0>         0.4338
     30 H17        -1.8484   -0.1871    0.8426 H         1 <0>         0.4370
@<TRIPOS>BOND
     1    1    2 1
     2    1   14 1
     3    1   15 1
     4    1   16 1
     5    2    3 1
     6    2    8 1
     7    2   13 1
     8    3    7 1
     9    3    4 2
    10    4    5 1
    11    5    6 2
    12    5   17 1
    13    6    7 1
    14    6   18 1
    15    8   12 1
    16    8    9 1
    17    8   19 1
    18    9   10 1
    19    9   20 1
    20    9   21 1
    21   10   11 1
    22   10   22 1
    23   10   23 1
    24   11   12 1
    25   11   24 1
    26   11   25 1
    27   12   26 1
    28   12   27 1
    29   13   28 1
    30   13   29 1
    31   13   30 1
@<TRIPOS>MOLECULE
ZINC62522167
   23    24     0     0     0
SMALL
USER_CHARGES

@<TRIPOS>ATOM
      1 C1         -0.0184    1.5028    0.0103 C.3       1 <0>        -0.1211
      2 C2          0.0021   -0.0041    0.0020 C.ar      1 <0>        -0.0448
      3 C3          0.0058   -0.6883   -1.1957 C.ar      1 <0>        -0.0623
      4 C4          0.0251   -2.0759   -1.2132 C.ar      1 <0>        -0.0275
      5 C5          0.0407   -2.7880   -0.0333 C.ar      1 <0>        -0.0445
      6 C6          0.0371   -2.1080    1.1852 C.ar      1 <0>         0.0210
      7 C7          0.0229   -0.7047    1.1980 C.ar      1 <0>         0.0390
      8 O1          0.0294   -0.3390    2.4989 O.3       1 <0>        -0.1981
      9 C8          0.0517   -1.4534    3.2467 C.2       1 <0>         0.1514
     10 N1          0.0482   -2.5066    2.4861 N.2       1 <0>        -0.4103
     11 C9          0.0655   -1.4793    4.7534 C.3       1 <0>         0.1116
     12 N2          1.4547   -1.4685    5.2307 N.4       1 <0>        -0.6350
     13 Cl1         0.0289   -2.9196   -2.7304 Cl        1 <0>        -0.0258
     14 H1          1.0042    1.8801    0.0026 H         1 <0>         0.0851
     15 H2         -0.5455    1.8639   -0.8728 H         1 <0>         0.0867
     16 H3         -0.5286    1.8543    0.9071 H         1 <0>         0.0744
     17 H4         -0.0067   -0.1404   -2.1263 H         1 <0>         0.1634
     18 H5          0.0553   -3.8678   -0.0517 H         1 <0>         0.1569
     19 H6         -0.4573   -0.6030    5.1367 H         1 <0>         0.1677
     20 H7         -0.4327   -2.3825    5.1059 H         1 <0>         0.1773
     21 H8          1.9386   -2.2797    4.8759 H         1 <0>         0.4432
     22 H9          1.9159   -0.6324    4.9044 H         1 <0>         0.4408
     23 H10         1.4640   -1.4858    6.2395 H         1 <0>         0.4508
@<TRIPOS>BOND
     1    1    2 1
     2    1   14 1
     3    1   15 1
     4    1   16 1
     5    2    7 ar
     6    2    3 ar
     7    3    4 ar
     8    3   17 1
     9    4    5 ar
    10    4   13 1
    11    5    6 ar
    12    5   18 1
    13    6   10 1
    14    6    7 ar
    15    7    8 1
    16    8    9 1
    17    9   10 2
    18    9   11 1
    19   11   12 1
    20   11   19 1
    21   11   20 1
    22   12   21 1
    23   12   22 1
    24   12   23 1
@<TRIPOS>MOLECULE
ZINC19505857
   34    34     0     0     0
SMALL
USER_CHARGES
(3S,6S)-N-isopropyl-6-methyl-piperidine-3-carboxamide
@<TRIPOS>ATOM
      1 C1         -0.0127    1.0858    0.0080 C.3       1 <0>        -0.1834
      2 C2         -0.7288    1.5792    1.2668 C.3       1 <0>         0.0349
      3 H1         -0.7217    2.6783    1.3099 H         1 <0>         0.1334
      4 C3         -2.1649    1.0505    1.2768 C.3       1 <0>        -0.1414
      5 C4         -2.8714    1.5301    2.5479 C.3       1 <0>        -0.1211
      6 C5         -2.0849    1.0510    3.7712 C.3       1 <0>        -0.1299
      7 H2         -2.0789   -0.0484    3.8080 H         1 <0>         0.1205
      8 C6         -0.6511    1.5797    3.6888 C.3       1 <0>         0.0049
      9 N1         -0.0185    1.0927    2.4564 N.4       1 <0>        -0.5336
     10 C7         -2.7405    1.5678    5.0258 C.2       1 <0>         0.5154
     11 O1         -3.7407    2.2496    4.9507 O.2       1 <0>        -0.5160
     12 N2         -2.2153    1.2723    6.2314 N.am      1 <0>        -0.7339
     13 C8         -2.8526    1.7747    7.4511 C.3       1 <0>         0.1377
     14 C9         -3.9744    0.8223    7.8697 C.3       1 <0>        -0.1682
     15 C10        -1.8134    1.8621    8.5706 C.3       1 <0>        -0.1634
     16 H3         -0.5448    1.4502   -0.8831 H         1 <0>         0.1063
     17 H4          0.0022   -0.0141    0.0020 H         1 <0>         0.0823
     18 H5          1.0193    1.4666    0.0002 H         1 <0>         0.0822
     19 H6         -2.7005    1.4274    0.3930 H         1 <0>         0.1156
     20 H7         -2.1509   -0.0492    1.2557 H         1 <0>         0.0904
     21 H8         -2.9208    2.6290    2.5475 H         1 <0>         0.0901
     22 H9         -3.8905    1.1173    2.5790 H         1 <0>         0.1010
     23 H10        -0.6657    2.6796    3.6830 H         1 <0>         0.1332
     24 H11        -0.0790    1.2252    4.5589 H         1 <0>         0.1354
     25 H12        -0.0309   -0.0072    2.4666 H         1 <0>         0.4467
     26 H13        -1.3081    0.6539    6.2995 H         1 <0>         0.4153
     27 H14        -3.2568    2.7711    7.2191 H         1 <0>         0.0909
     28 H15        -4.4529    1.1995    8.7855 H         1 <0>         0.0731
     29 H16        -3.5553   -0.1768    8.0598 H         1 <0>         0.0599
     30 H17        -4.7215    0.7595    7.0648 H         1 <0>         0.0603
     31 H18        -2.2919    2.2393    9.4864 H         1 <0>         0.0802
     32 H19        -1.0069    2.5468    8.2695 H         1 <0>         0.0619
     33 H20        -1.3943    0.8630    8.7607 H         1 <0>         0.0644
     34 H21         1.0225    1.4474    2.4325 H         1 <0>         0.4550
@<TRIPOS>BOND
     1    1    2 1
     2    1   16 1
     3    1   17 1
     4    1   18 1
     5    2    3 1
     6    2    9 1
     7    2    4 1
     8    4    5 1
     9    4   19 1
    10    4   20 1
    11    5    6 1
    12    5   21 1
    13    5   22 1
    14    6    7 1
    15    6    8 1
    16    6   10 1
    17    8    9 1
    18    8   23 1
    19    8   24 1
    20    9   25 1
    21    9   34 1
    22   10   11 2
    23   10   12 am
    24   12   13 1
    25   12   26 1
    26   13   14 1
    27   13   15 1
    28   13   27 1
    29   14   28 1
    30   14   29 1
    31   14   30 1
    32   15   31 1
    33   15   32 1
    34   15   33 1
@<TRIPOS>MOLECULE
ZINC35381523
   25    26     0     0     0
SMALL
USER_CHARGES

@<TRIPOS>ATOM
      1 C1         -0.0178    1.4608    0.0101 C.3       1 <0>         0.0875
      2 N1          0.0021   -0.0041    0.0020 N.pl3     1 <0>        -0.3527
      3 C2          0.0078   -0.7920   -1.0936 C.2       1 <0>         0.1143
      4 C3          0.0272   -2.0789   -0.6760 C.2       1 <0>        -0.3091
      5 C4          0.0335   -2.0775    0.7227 C.2       1 <0>         0.0507
      6 N2          0.0246   -0.8342    1.1302 N.2       1 <0>        -0.2651
      7 C5          0.0390   -3.2983   -1.5614 C.3       1 <0>         0.1963
      8 H1          0.3817   -3.0203   -2.5581 H         1 <0>         0.1493
      9 C6         -1.3532   -3.8684   -1.6498 C.2       1 <0>        -0.1536
     10 C7         -2.1476   -3.6120   -2.7515 C.2       1 <0>        -0.1593
     11 C8         -3.3950   -4.1400   -2.7997 C.2       1 <0>        -0.1500
     12 S1         -3.4785   -5.0316   -1.2552 S.3       1 <0>         0.1255
     13 C9         -1.8431   -4.6449   -0.6526 C.2       1 <0>        -0.1977
     14 N3          0.9457   -4.3059   -0.9952 N.4       1 <0>        -0.6323
     15 H2          1.0048    1.8381    0.0023 H         1 <0>         0.0896
     16 H3         -0.5450    1.8219   -0.8730 H         1 <0>         0.0993
     17 H4         -0.5280    1.8123    0.9069 H         1 <0>         0.1011
     18 H5         -0.0017   -0.4556   -2.1198 H         1 <0>         0.1868
     19 H6          0.0482   -2.9516    1.3568 H         1 <0>         0.1835
     20 H7         -1.7799   -2.9999   -3.5618 H         1 <0>         0.1440
     21 H8         -4.1442   -4.0455   -3.5718 H         1 <0>         0.1971
     22 H9         -1.3678   -4.9497    0.2681 H         1 <0>         0.1868
     23 H10         0.9536   -5.1223   -1.5880 H         1 <0>         0.4393
     24 H11         1.8778   -3.9241   -0.9360 H         1 <0>         0.4400
     25 H12         0.6285   -4.5632   -0.0726 H         1 <0>         0.4286
@<TRIPOS>BOND
     1    1    2 1
     2    1   15 1
     3    1   16 1
     4    1   17 1
     5    2    6 1
     6    2    3 1
     7    3    4 2
     8    3   18 1
     9    4    5 1
    10    4    7 1
    11    5    6 2
    12    5   19 1
    13    7    8 1
    14    7    9 1
    15    7   14 1
    16    9   13 2
    17    9   10 1
    18   10   11 2
    19   10   20 1
    20   11   12 1
    21   11   21 1
    22   12   13 1
    23   13   22 1
    24   14   23 1
    25   14   24 1
    26   14   25 1
@<TRIPOS>MOLECULE
ZINC43609819
   34    35     0     0     0
SMALL
USER_CHARGES

@<TRIPOS>ATOM
      1 C1         -0.0184    1.5028    0.0103 C.3       1 <0>        -0.0886
      2 C2          0.0021   -0.0041    0.0020 C.2       1 <0>         0.0402
      3 C3         -1.0783   -0.8055    0.0027 C.2       1 <0>        -0.2164
      4 C4         -0.6011   -2.1363   -0.0068 C.2       1 <0>        -0.1248
      5 C5          0.7423   -2.0686   -0.0126 C.2       1 <0>        -0.1132
      6 O1          1.1020   -0.7746   -0.0131 O.3       1 <0>        -0.1801
      7 C6          1.6840   -3.2450   -0.0226 C.3       1 <0>         0.1412
      8 H1          1.1588   -4.1339    0.3270 H         1 <0>         0.1643
      9 C7          2.1918   -3.4798   -1.4467 C.3       1 <0>        -0.1094
     10 C8          1.0061   -3.7677   -2.3699 C.3       1 <0>        -0.1108
     11 C9          1.5139   -4.0025   -3.7940 C.3       1 <0>        -0.1217
     12 C10         2.4699   -5.1969   -3.8041 C.3       1 <0>        -0.1269
     13 C11         3.6556   -4.9090   -2.8809 C.3       1 <0>        -0.1197
     14 C12         3.1478   -4.6743   -1.4568 C.3       1 <0>        -0.1303
     15 N1          2.8224   -2.9686    0.8638 N.4       1 <0>        -0.6384
     16 H2          1.0042    1.8801    0.0026 H         1 <0>         0.0820
     17 H3         -0.5455    1.8639   -0.8728 H         1 <0>         0.0988
     18 H4         -0.5286    1.8543    0.9071 H         1 <0>         0.0982
     19 H5         -2.1119   -0.4924    0.0097 H         1 <0>         0.1626
     20 H6         -1.2002   -3.0349   -0.0086 H         1 <0>         0.1607
     21 H7          2.7170   -2.5910   -1.7963 H         1 <0>         0.0991
     22 H8          0.4809   -4.6565   -2.0203 H         1 <0>         0.0751
     23 H9          0.3250   -2.9168   -2.3626 H         1 <0>         0.0757
     24 H10         0.6692   -4.2076   -4.4517 H         1 <0>         0.0750
     25 H11         2.0391   -3.1136   -4.1436 H         1 <0>         0.0663
     26 H12         1.9447   -6.0857   -3.4545 H         1 <0>         0.0675
     27 H13         2.8317   -5.3641   -4.8187 H         1 <0>         0.0724
     28 H14         4.3367   -5.7600   -2.8882 H         1 <0>         0.0755
     29 H15         4.1808   -4.0202   -3.2305 H         1 <0>         0.0683
     30 H16         3.9925   -4.4691   -0.7991 H         1 <0>         0.0591
     31 H17         2.6226   -5.5631   -1.1072 H         1 <0>         0.0824
     32 H18         2.4875   -2.8138    1.8029 H         1 <0>         0.4398
     33 H19         3.4529   -3.7563    0.8571 H         1 <0>         0.4382
     34 H20         3.3086   -2.1459    0.5402 H         1 <0>         0.4379
@<TRIPOS>BOND
     1    1    2 1
     2    1   16 1
     3    1   17 1
     4    1   18 1
     5    2    6 1
     6    2    3 2
     7    3    4 1
     8    3   19 1
     9    4    5 2
    10    4   20 1
    11    5    6 1
    12    5    7 1
    13    7    8 1
    14    7    9 1
    15    7   15 1
    16    9   14 1
    17    9   10 1
    18    9   21 1
    19   10   11 1
    20   10   22 1
    21   10   23 1
    22   11   12 1
    23   11   24 1
    24   11   25 1
    25   12   13 1
    26   12   26 1
    27   12   27 1
    28   13   14 1
    29   13   28 1
    30   13   29 1
    31   14   30 1
    32   14   31 1
    33   15   32 1
    34   15   33 1
    35   15   34 1
@<TRIPOS>MOLECULE
ZINC51665161
   29    29     0     0     0
SMALL
USER_CHARGES

@<TRIPOS>ATOM
      1 C1         -0.0179    1.4678    0.0101 C.3       1 <0>        -0.0659
      2 C2          0.0021   -0.0041    0.0020 C.1       1 <0>        -0.1037
      3 C3          0.0180   -1.1779   -0.0044 C.1       1 <0>        -0.2725
      4 C4          0.0380   -2.6498   -0.0125 C.3       1 <0>        -0.0089
      5 C5         -1.3974   -3.1794   -0.0017 C.3       1 <0>         0.0937
      6 H1         -1.9503   -2.7476   -0.8359 H         1 <0>         0.1538
      7 C6         -1.3800   -4.6805   -0.1337 C.ar      1 <0>        -0.1287
      8 C7         -1.1231   -5.4686    0.9729 C.ar      1 <0>        -0.1270
      9 C8         -1.1068   -6.8456    0.8532 C.ar      1 <0>        -0.0781
     10 C9         -1.3470   -7.4362   -0.3731 C.ar      1 <0>        -0.0838
     11 C10        -1.6044   -6.6480   -1.4818 C.ar      1 <0>         0.1137
     12 C11        -1.6265   -5.2688   -1.3595 C.ar      1 <0>        -0.1177
     13 F1         -1.8389   -7.2242   -2.6811 F         1 <0>        -0.1212
     14 C12        -1.3282   -8.9374   -0.5034 C.3       1 <0>        -0.1312
     15 N1         -2.0474   -2.8065    1.2618 N.4       1 <0>        -0.6348
     16 H2          1.0047    1.8451    0.0024 H         1 <0>         0.0964
     17 H3         -0.5451    1.8289   -0.8729 H         1 <0>         0.0937
     18 H4         -0.5281    1.8193    0.9069 H         1 <0>         0.0917
     19 H5          0.5481   -3.0013   -0.9093 H         1 <0>         0.1322
     20 H6          0.5651   -3.0109    0.8705 H         1 <0>         0.1104
     21 H7         -0.9346   -5.0080    1.9313 H         1 <0>         0.1297
     22 H8         -0.9060   -7.4602    1.7183 H         1 <0>         0.1476
     23 H9         -1.8316   -4.6531   -2.2227 H         1 <0>         0.1489
     24 H10        -2.3288   -9.3303   -0.3230 H         1 <0>         0.0874
     25 H11        -1.0062   -9.2109   -1.5082 H         1 <0>         0.0803
     26 H12        -0.6361   -9.3568    0.2268 H         1 <0>         0.0834
     27 H13        -1.5356   -3.2061    2.0341 H         1 <0>         0.4319
     28 H14        -2.0590   -1.8014    1.3503 H         1 <0>         0.4388
     29 H15        -2.9940   -3.1557    1.2690 H         1 <0>         0.4400
@<TRIPOS>BOND
     1    1    2 1
     2    1   16 1
     3    1   17 1
     4    1   18 1
     5    2    3 3
     6    3    4 1
     7    4    5 1
     8    4   19 1
     9    4   20 1
    10    5    6 1
    11    5    7 1
    12    5   15 1
    13    7   12 ar
    14    7    8 ar
    15    8    9 ar
    16    8   21 1
    17    9   10 ar
    18    9   22 1
    19   10   11 ar
    20   10   14 1
    21   11   12 ar
    22   11   13 1
    23   12   23 1
    24   14   24 1
    25   14   25 1
    26   14   26 1
    27   15   27 1
    28   15   28 1
    29   15   29 1
@<TRIPOS>MOLECULE
ZINC63067260
   31    31     0     0     0
SMALL
USER_CHARGES

@<TRIPOS>ATOM
      1 C1          0.4629    1.4473    0.7807 C.3       1 <0>        -0.1791
      2 C2          0.1609    0.0812    0.1614 C.3       1 <0>         0.0385
      3 H1          0.4150    0.0986   -0.8985 H         1 <0>         0.1597
      4 C3         -1.3049   -0.2300    0.3214 C.2       1 <0>         0.2476
      5 S1         -1.8196   -1.0099    1.6190 S.2       1 <0>        -0.3799
      6 N1         -2.1820    0.1492   -0.6290 N.pl3     1 <0>        -0.7557
      7 N2          0.9573   -0.9505    0.8390 N.4       1 <0>        -0.3762
      8 C4          2.3846   -0.5650    0.8270 C.3       1 <0>        -0.0119
      9 C5          3.1531   -1.8986    0.6523 C.3       1 <0>        -0.1409
     10 C6          2.2225   -2.6716   -0.3189 C.3       1 <0>        -0.1311
     11 C7          0.8120   -2.2350    0.1298 C.3       1 <0>         0.0541
     12 C8          0.2169   -3.2845    1.0707 C.3       1 <0>        -0.1778
     13 C9         -0.0907   -2.0555   -1.0924 C.3       1 <0>        -0.1902
     14 H2          1.5231    1.6724    0.6649 H         1 <0>         0.1012
     15 H3         -0.1281    2.2128    0.2779 H         1 <0>         0.1065
     16 H4          0.2087    1.4299    1.8405 H         1 <0>         0.0947
     17 H5         -1.8698    0.6223   -1.4162 H         1 <0>         0.4079
     18 H6         -3.1255   -0.0511   -0.5260 H         1 <0>         0.4365
     19 H7          2.5900    0.1037   -0.0089 H         1 <0>         0.1321
     20 H8          2.6574   -0.0905    1.7696 H         1 <0>         0.1392
     21 H9          4.1318   -1.7293    0.2033 H         1 <0>         0.1194
     22 H10         3.2469   -2.4227    1.6034 H         1 <0>         0.1017
     23 H11         2.4084   -2.3729   -1.3505 H         1 <0>         0.0991
     24 H12         2.3490   -3.7476   -0.1993 H         1 <0>         0.1153
     25 H13        -0.8315   -3.0521    1.2578 H         1 <0>         0.1004
     26 H14         0.2942   -4.2699    0.6111 H         1 <0>         0.1004
     27 H15         0.7641   -3.2794    2.0134 H         1 <0>         0.0832
     28 H16         0.3034   -1.2571   -1.7211 H         1 <0>         0.0785
     29 H17        -0.1209   -2.9847   -1.6613 H         1 <0>         0.1099
     30 H18        -1.0978   -1.7968   -0.7654 H         1 <0>         0.0833
     31 H19         0.6429   -1.0515    1.7924 H         1 <0>         0.4335
@<TRIPOS>BOND
     1    1    2 1
     2    1   14 1
     3    1   15 1
     4    1   16 1
     5    2    3 1
     6    2    4 1
     7    2    7 1
     8    4    5 2
     9    4    6 1
    10    6   17 1
    11    6   18 1
    12    7   11 1
    13    7    8 1
    14    7   31 1
    15    8    9 1
    16    8   19 1
    17    8   20 1
    18    9   10 1
    19    9   21 1
    20    9   22 1
    21   10   11 1
    22   10   23 1
    23   10   24 1
    24   11   12 1
    25   11   13 1
    26   12   25 1
    27   12   26 1
    28   12   27 1
    29   13   28 1
    30   13   29 1
    31   13   30 1
@<TRIPOS>MOLECULE
ZINC37740111
   44    46     0     0     0
SMALL
USER_CHARGES

@<TRIPOS>ATOM
      1 C1         -0.0163    1.3531    0.0095 C.2       1 <0>        -0.1555
      2 C2          1.1782    2.0408    0.0018 C.2       1 <0>        -0.0877
      3 C3          2.3471    1.3290   -0.0132 C.2       1 <0>        -0.1174
      4 S1          1.7524   -0.3544   -0.0166 S.3       1 <0>        -0.0079
      5 C4          0.0021   -0.0041    0.0020 C.2       1 <0>        -0.1145
      6 C5          3.7405    1.8254   -0.0239 C.2       1 <0>         0.1819
      7 C6          4.8430    1.2178    0.6116 C.2       1 <0>        -0.3111
      8 C7          5.9325    1.9765    0.3647 C.2       1 <0>         0.1252
      9 N1          5.5483    3.0248   -0.3952 N.pl3     1 <0>        -0.4479
     10 H1          6.1257    3.7322   -0.7225 H         1 <0>         0.4579
     11 N2          4.1727    2.9107   -0.6336 N.2       1 <0>        -0.2469
     12 C8          4.8109   -0.0521    1.4224 C.3       1 <0>         0.0815
     13 N3          4.8138   -1.2103    0.5187 N.4       1 <0>        -0.5112
     14 C9          4.7825   -2.4482    1.3091 C.3       1 <0>        -0.0162
     15 C10         4.7855   -3.6544    0.3678 C.3       1 <0>        -0.1471
     16 C11         4.7530   -4.9437    1.1910 C.3       1 <0>        -0.0816
     17 C12         3.4293   -5.0286    1.9537 C.3       1 <0>        -0.1212
     18 C13         3.3968   -6.3178    2.7769 C.3       1 <0>        -0.1223
     19 C14         3.5254   -7.5227    1.8427 C.3       1 <0>        -0.1247
     20 C15         4.8490   -7.4378    1.0801 C.3       1 <0>        -0.1226
     21 C16         4.8815   -6.1486    0.2569 C.3       1 <0>        -0.1153
     22 H2         -0.9549    1.8872    0.0258 H         1 <0>         0.1536
     23 H3          1.1914    3.1207    0.0071 H         1 <0>         0.1469
     24 H4         -0.8285   -0.6944    0.0069 H         1 <0>         0.2017
     25 H5          6.9353    1.7797    0.7141 H         1 <0>         0.1971
     26 H6          5.6881   -0.0931    2.0682 H         1 <0>         0.1434
     27 H7          3.9086   -0.0703    2.0335 H         1 <0>         0.1374
     28 H8          4.0018   -1.1724   -0.0791 H         1 <0>         0.4160
     29 H9          5.6597   -2.4891    1.9549 H         1 <0>         0.1361
     30 H10         3.8802   -2.4664    1.9202 H         1 <0>         0.1348
     31 H11         3.9084   -3.6135   -0.2780 H         1 <0>         0.0878
     32 H12         5.6878   -3.6362   -0.2433 H         1 <0>         0.0888
     33 H13         5.5812   -4.9433    1.8996 H         1 <0>         0.0822
     34 H14         3.3377   -4.1702    2.6192 H         1 <0>         0.0607
     35 H15         2.6011   -5.0289    1.2451 H         1 <0>         0.0678
     36 H16         4.2250   -6.3175    3.4855 H         1 <0>         0.0643
     37 H17         2.4538   -6.3783    3.3202 H         1 <0>         0.0667
     38 H18         3.5022   -8.4412    2.4292 H         1 <0>         0.0664
     39 H19         2.6971   -7.5231    1.1341 H         1 <0>         0.0632
     40 H20         5.6773   -7.4375    1.7887 H         1 <0>         0.0642
     41 H21         4.9406   -8.2962    0.4146 H         1 <0>         0.0677
     42 H22         4.0533   -6.1489   -0.4517 H         1 <0>         0.0665
     43 H23         5.8245   -6.0881   -0.2864 H         1 <0>         0.0658
     44 H24         5.6491   -1.1934   -0.0470 H         1 <0>         0.4255
@<TRIPOS>BOND
     1    1    5 2
     2    1    2 1
     3    1   22 1
     4    2    3 2
     5    2   23 1
     6    3    4 1
     7    3    6 1
     8    4    5 1
     9    5   24 1
    10    6   11 2
    11    6    7 1
    12    7    8 2
    13    7   12 1
    14    8    9 1
    15    8   25 1
    16    9   10 1
    17    9   11 1
    18   12   13 1
    19   12   26 1
    20   12   27 1
    21   13   14 1
    22   13   28 1
    23   13   44 1
    24   14   15 1
    25   14   29 1
    26   14   30 1
    27   15   16 1
    28   15   31 1
    29   15   32 1
    30   16   21 1
    31   16   17 1
    32   16   33 1
    33   17   18 1
    34   17   34 1
    35   17   35 1
    36   18   19 1
    37   18   36 1
    38   18   37 1
    39   19   20 1
    40   19   38 1
    41   19   39 1
    42   20   21 1
    43   20   40 1
    44   20   41 1
    45   21   42 1
    46   21   43 1
@<TRIPOS>MOLECULE
ZINC42166433
   50    51     0     0     0
SMALL
USER_CHARGES

@<TRIPOS>ATOM
      1 C1          0.8525   -1.3643   -3.4387 C.3       1 <0>        -0.1617
      2 C2          0.0777   -1.0159   -2.1662 C.3       1 <0>        -0.0620
      3 C3         -0.1838    0.4911   -2.1248 C.3       1 <0>        -0.1451
      4 C4         -1.2562   -1.7653   -2.1600 C.3       1 <0>        -0.1424
      5 C5          0.8982   -1.4250   -0.9413 C.3       1 <0>        -0.1111
      6 C6          2.1723   -0.5805   -0.8758 C.3       1 <0>         0.1821
      7 H1          1.9119    0.4759   -0.9416 H         1 <0>         0.1053
      8 C7          3.0776   -0.9471   -2.0235 C.ar      1 <0>        -0.0963
      9 C8          3.5944   -2.2260   -2.1149 C.ar      1 <0>        -0.1141
     10 C9          4.4247   -2.5623   -3.1676 C.ar      1 <0>        -0.1147
     11 C10         4.7380   -1.6198   -4.1292 C.ar      1 <0>        -0.1076
     12 C11         4.2204   -0.3412   -4.0383 C.ar      1 <0>        -0.1152
     13 C12         3.3866   -0.0062   -2.9878 C.ar      1 <0>        -0.1012
     14 N1          2.8624   -0.8353    0.3912 N.am      1 <0>        -0.7068
     15 C13         2.5017   -0.1629    1.5021 C.2       1 <0>         0.5009
     16 O1          1.5462    0.5835    1.4757 O.2       1 <0>        -0.5476
     17 C14         3.2856   -0.3387    2.7771 C.3       1 <0>        -0.1693
     18 C15         2.5973    0.4273    3.9087 C.3       1 <0>         0.0447
     19 H2          2.5001    1.4789    3.6388 H         1 <0>         0.1489
     20 C16         3.4177    0.2926    5.2087 C.3       1 <0>        -0.1383
     21 C17         2.3234    0.1616    6.3006 C.3       1 <0>        -0.1436
     22 C18         1.2378   -0.6574    5.5588 C.3       1 <0>        -0.0102
     23 N2          1.2652   -0.1494    4.1671 N.4       1 <0>        -0.5097
     24 H3          1.6266   -0.6161   -3.6091 H         1 <0>         0.0742
     25 H4          1.3139   -2.3453   -3.3259 H         1 <0>         0.0559
     26 H5          0.1689   -1.3797   -4.2875 H         1 <0>         0.0524
     27 H6         -0.8651    0.7639   -2.9307 H         1 <0>         0.0592
     28 H7         -0.6301    0.7562   -1.1663 H         1 <0>         0.0555
     29 H8          0.7576    1.0267   -2.2478 H         1 <0>         0.0538
     30 H9         -1.0700   -2.8388   -2.1895 H         1 <0>         0.0550
     31 H10        -1.8082   -1.5170   -1.2534 H         1 <0>         0.0523
     32 H11        -1.8408   -1.4738   -3.0326 H         1 <0>         0.0602
     33 H12         0.3087   -1.2639   -0.0388 H         1 <0>         0.0666
     34 H13         1.1645   -2.4792   -1.0180 H         1 <0>         0.0683
     35 H14         3.3497   -2.9623   -1.3636 H         1 <0>         0.1188
     36 H15         4.8291   -3.5612   -3.2387 H         1 <0>         0.1259
     37 H16         5.3873   -1.8824   -4.9513 H         1 <0>         0.1268
     38 H17         4.4654    0.3952   -4.7893 H         1 <0>         0.1277
     39 H18         2.9793    0.9917   -2.9188 H         1 <0>         0.1235
     40 H19         3.5790   -1.4879    0.4304 H         1 <0>         0.4069
     41 H20         3.3330   -1.3975    3.0315 H         1 <0>         0.1175
     42 H21         4.2955    0.0474    2.6389 H         1 <0>         0.1434
     43 H22         4.0420   -0.6004    5.1797 H         1 <0>         0.1025
     44 H23         4.0241    1.1829    5.3758 H         1 <0>         0.1165
     45 H24         2.6994   -0.3828    7.1669 H         1 <0>         0.1191
     46 H25         1.9430    1.1407    6.5916 H         1 <0>         0.1007
     47 H26         1.4821   -1.7195    5.5814 H         1 <0>         0.1329
     48 H27         0.2591   -0.4828    6.0058 H         1 <0>         0.1374
     49 H28         0.5587    0.5612    4.0487 H         1 <0>         0.4366
     50 H29         1.0931   -0.9080    3.5244 H         1 <0>         0.4251
@<TRIPOS>BOND
     1    1    2 1
     2    1   24 1
     3    1   25 1
     4    1   26 1
     5    2    3 1
     6    2    4 1
     7    2    5 1
     8    3   27 1
     9    3   28 1
    10    3   29 1
    11    4   30 1
    12    4   31 1
    13    4   32 1
    14    5    6 1
    15    5   33 1
    16    5   34 1
    17    6    7 1
    18    6    8 1
    19    6   14 1
    20    8   13 ar
    21    8    9 ar
    22    9   10 ar
    23    9   35 1
    24   10   11 ar
    25   10   36 1
    26   11   12 ar
    27   11   37 1
    28   12   13 ar
    29   12   38 1
    30   13   39 1
    31   14   15 am
    32   14   40 1
    33   15   16 2
    34   15   17 1
    35   17   18 1
    36   17   41 1
    37   17   42 1
    38   18   19 1
    39   18   23 1
    40   18   20 1
    41   20   21 1
    42   20   43 1
    43   20   44 1
    44   21   22 1
    45   21   45 1
    46   21   46 1
    47   22   23 1
    48   22   47 1
    49   22   48 1
    50   23   49 1
    51   23   50 1
@<TRIPOS>MOLECULE
ZINC45093932
   51    52     0     0     0
SMALL
USER_CHARGES

@<TRIPOS>ATOM
      1 C1         -2.9669   -0.8076    5.3782 C.3       1 <0>        -0.1415
      2 C2         -1.9183   -0.7054    4.3007 C.ar      1 <0>        -0.0694
      3 C3         -1.6777    0.5098    3.6887 C.ar      1 <0>        -0.0664
      4 C4         -0.7174    0.6074    2.7008 C.ar      1 <0>        -0.1350
      5 C5          0.0035   -0.5158    2.3253 C.ar      1 <0>         0.1408
      6 C6         -0.2390   -1.7375    2.9411 C.ar      1 <0>        -0.1960
      7 C7         -1.1968   -1.8289    3.9327 C.ar      1 <0>        -0.0485
      8 C8         -1.2671   -3.2511    4.4464 C.3       1 <0>        -0.0621
      9 H1         -0.7451   -3.3352    5.3996 H         1 <0>         0.0991
     10 C9         -0.5605   -4.1043    3.3717 C.3       1 <0>        -0.1354
     11 C10         0.3993   -3.0918    2.7189 C.3       1 <0>         0.0839
     12 H2          0.5029   -3.2908    1.6523 H         1 <0>         0.1502
     13 N1          1.7100   -3.1522    3.3795 N.4       1 <0>        -0.5036
     14 C11         2.3148   -4.4708    3.1479 C.3       1 <0>        -0.0062
     15 C12         3.6703   -4.5412    3.8539 C.3       1 <0>         0.0292
     16 O1          3.4762   -4.4573    5.2672 O.3       1 <0>        -0.4017
     17 C13         4.6868   -4.5140    6.0244 C.3       1 <0>         0.0622
     18 C14         4.3603   -4.4161    7.5160 C.3       1 <0>        -0.1148
     19 C15         5.6564   -4.4768    8.3268 C.3       1 <0>        -0.0953
     20 C16         6.5097   -3.2451    8.0175 C.3       1 <0>        -0.1542
     21 C17         5.3231   -4.5045    9.8198 C.3       1 <0>        -0.1504
     22 C18        -2.7252   -3.6884    4.6003 C.3       1 <0>        -0.1592
     23 O2          0.9485   -0.4217    1.3532 O.3       1 <0>        -0.4925
     24 H3         -2.4903   -0.7422    6.3563 H         1 <0>         0.0782
     25 H4         -3.6823    0.0072    5.2674 H         1 <0>         0.0748
     26 H5         -3.4864   -1.7618    5.2903 H         1 <0>         0.0887
     27 H6         -2.2408    1.3833    3.9827 H         1 <0>         0.1433
     28 H7         -0.5288    1.5566    2.2215 H         1 <0>         0.1450
     29 H8         -0.0109   -4.9268    3.8295 H         1 <0>         0.1033
     30 H9         -1.2770   -4.4758    2.6391 H         1 <0>         0.1192
     31 H10         2.3108   -2.4354    3.0009 H         1 <0>         0.4226
     32 H11         1.6585   -5.2460    3.5433 H         1 <0>         0.1426
     33 H12         2.4541   -4.6236    2.0777 H         1 <0>         0.1476
     34 H13         4.1586   -5.4846    3.6096 H         1 <0>         0.0996
     35 H14         4.2957   -3.7120    3.5232 H         1 <0>         0.0742
     36 H15         5.1962   -5.4568    5.8252 H         1 <0>         0.0612
     37 H16         5.3333   -3.6843    5.7388 H         1 <0>         0.0610
     38 H17         3.8509   -3.4732    7.7153 H         1 <0>         0.0715
     39 H18         3.7138   -5.2458    7.8017 H         1 <0>         0.0745
     40 H19         6.2092   -5.3778    8.0612 H         1 <0>         0.0740
     41 H20         5.9568   -2.3440    8.2831 H         1 <0>         0.0569
     42 H21         7.4330   -3.2883    8.5951 H         1 <0>         0.0617
     43 H22         6.7471   -3.2253    6.9538 H         1 <0>         0.0524
     44 H23         4.7152   -5.3820   10.0402 H         1 <0>         0.0576
     45 H24         6.2465   -4.5477   10.3975 H         1 <0>         0.0617
     46 H25         4.7702   -3.6034   10.0855 H         1 <0>         0.0567
     47 H26        -3.2854   -3.4053    3.7092 H         1 <0>         0.0664
     48 H27        -2.7686   -4.7700    4.7284 H         1 <0>         0.0702
     49 H28        -3.1604   -3.2015    5.4730 H         1 <0>         0.0792
     50 H29         1.8442   -0.2777    1.6879 H         1 <0>         0.3903
     51 H30         1.5940   -3.0048    4.3709 H         1 <0>         0.4324
@<TRIPOS>BOND
     1    1    2 1
     2    1   24 1
     3    1   25 1
     4    1   26 1
     5    2    7 ar
     6    2    3 ar
     7    3    4 ar
     8    3   27 1
     9    4    5 ar
    10    4   28 1
    11    5    6 ar
    12    5   23 1
    13    6   11 1
    14    6    7 ar
    15    7    8 1
    16    8    9 1
    17    8   10 1
    18    8   22 1
    19   10   11 1
    20   10   29 1
    21   10   30 1
    22   11   12 1
    23   11   13 1
    24   13   14 1
    25   13   31 1
    26   13   51 1
    27   14   15 1
    28   14   32 1
    29   14   33 1
    30   15   16 1
    31   15   34 1
    32   15   35 1
    33   16   17 1
    34   17   18 1
    35   17   36 1
    36   17   37 1
    37   18   19 1
    38   18   38 1
    39   18   39 1
    40   19   20 1
    41   19   21 1
    42   19   40 1
    43   20   41 1
    44   20   42 1
    45   20   43 1
    46   21   44 1
    47   21   45 1
    48   21   46 1
    49   22   47 1
    50   22   48 1
    51   22   49 1
    52   23   50 1
@<TRIPOS>MOLECULE
ZINC54995897
   46    46     0     0     0
SMALL
USER_CHARGES

@<TRIPOS>ATOM
      1 C1         -0.0504    0.9094    0.8568 C.3       1 <0>        -0.1529
      2 C2          0.1778   -0.5565    0.4828 C.3       1 <0>        -0.1444
      3 C3         -1.0787   -1.3671    0.8068 C.3       1 <0>         0.1119
      4 N1         -0.8602   -2.7708    0.4487 N.pl3     1 <0>        -0.5442
      5 C4         -0.3036   -3.7002    1.4350 C.3       1 <0>         0.1193
      6 C5         -1.4425   -4.3457    2.2269 C.3       1 <0>        -0.1362
      7 C6         -0.8612   -5.3164    3.2569 C.3       1 <0>        -0.1518
      8 C7         -1.1800   -3.2194   -0.8232 C.2       1 <0>         0.3648
      9 N2         -1.0587   -4.4334   -1.3167 N.2       1 <0>        -0.5897
     10 C8         -1.4123   -4.7019   -2.5613 C.2       1 <0>         0.2187
     11 C9         -1.9014   -3.6757   -3.2978 C.2       1 <0>        -0.3928
     12 S1         -1.8246   -2.3457   -2.1091 S.3       1 <0>         0.1029
     13 C10        -2.3828   -3.6615   -4.7258 C.3       1 <0>         0.1090
     14 N3         -3.8456   -3.7939   -4.7507 N.4       1 <0>        -0.6437
     15 C11        -1.2770   -6.0884   -3.1360 C.3       1 <0>        -0.0110
     16 C12        -0.8459   -7.0577   -2.0335 C.3       1 <0>        -0.1303
     17 C13        -2.6224   -6.5357   -3.7110 C.3       1 <0>        -0.1479
     18 C14        -0.2251   -6.0795   -4.2471 C.3       1 <0>        -0.1443
     19 H1          0.8448    1.4869    0.6260 H         1 <0>         0.0664
     20 H2         -0.8931    1.3025    0.2880 H         1 <0>         0.0583
     21 H3         -0.2656    0.9832    1.9228 H         1 <0>         0.0619
     22 H4          0.3930   -0.6303   -0.5832 H         1 <0>         0.0658
     23 H5          1.0205   -0.9496    1.0516 H         1 <0>         0.0739
     24 H6         -1.2938   -1.2933    1.8728 H         1 <0>         0.1019
     25 H7         -1.9214   -0.9740    0.2381 H         1 <0>         0.0809
     26 H8          0.2672   -4.4747    0.9226 H         1 <0>         0.0920
     27 H9          0.3510   -3.1574    2.1168 H         1 <0>         0.0899
     28 H10        -2.0133   -3.5712    2.7392 H         1 <0>         0.0645
     29 H11        -2.0971   -4.8885    1.5450 H         1 <0>         0.0651
     30 H12        -0.2904   -6.0909    2.7446 H         1 <0>         0.0591
     31 H13        -0.2066   -4.7736    3.9387 H         1 <0>         0.0592
     32 H14        -1.6726   -5.7763    3.8211 H         1 <0>         0.0625
     33 H15        -2.0950   -2.7217   -5.1969 H         1 <0>         0.1415
     34 H16        -1.9334   -4.4928   -5.2689 H         1 <0>         0.1495
     35 H17        -4.1213   -4.5855   -4.1890 H         1 <0>         0.4305
     36 H18        -4.2657   -2.9551   -4.3790 H         1 <0>         0.4327
     37 H19        -1.5953   -7.0641   -1.2419 H         1 <0>         0.0606
     38 H20        -0.7480   -8.0606   -2.4492 H         1 <0>         0.0600
     39 H21         0.1126   -6.7390   -1.6238 H         1 <0>         0.0661
     40 H22        -2.8607   -5.9342   -4.5882 H         1 <0>         0.0382
     41 H23        -2.5646   -7.5863   -3.9957 H         1 <0>         0.0845
     42 H24        -3.4004   -6.4054   -2.9588 H         1 <0>         0.0645
     43 H25         0.7547   -5.8698   -3.8181 H         1 <0>         0.0672
     44 H26        -0.2063   -7.0528   -4.7375 H         1 <0>         0.0747
     45 H27        -0.4744   -5.3095   -4.9773 H         1 <0>         0.0550
     46 H28        -4.1547   -3.9321   -5.7012 H         1 <0>         0.4361
@<TRIPOS>BOND
     1    1    2 1
     2    1   19 1
     3    1   20 1
     4    1   21 1
     5    2    3 1
     6    2   22 1
     7    2   23 1
     8    3    4 1
     9    3   24 1
    10    3   25 1
    11    4    5 1
    12    4    8 1
    13    5    6 1
    14    5   26 1
    15    5   27 1
    16    6    7 1
    17    6   28 1
    18    6   29 1
    19    7   30 1
    20    7   31 1
    21    7   32 1
    22    8   12 1
    23    8    9 2
    24    9   10 1
    25   10   11 2
    26   10   15 1
    27   11   12 1
    28   11   13 1
    29   13   14 1
    30   13   33 1
    31   13   34 1
    32   14   35 1
    33   14   36 1
    34   14   46 1
    35   15   16 1
    36   15   17 1
    37   15   18 1
    38   16   37 1
    39   16   38 1
    40   16   39 1
    41   17   40 1
    42   17   41 1
    43   17   42 1
    44   18   43 1
    45   18   44 1
    46   18   45 1
@<TRIPOS>MOLECULE
ZINC62776984
   34    35     0     0     0
SMALL
USER_CHARGES

@<TRIPOS>ATOM
      1 C1         -0.0187    1.5258    0.0104 C.3       1 <0>        -0.1560
      2 C2          0.0021   -0.0041    0.0020 C.3       1 <0>        -0.1504
      3 C3          0.7182   -0.4975   -1.2568 C.3       1 <0>        -0.0093
      4 N1          0.7381   -1.9663   -1.2649 N.4       1 <0>        -0.5064
      5 C4          1.4257   -2.4401   -2.4735 C.3       1 <0>         0.1805
      6 H1          0.9519   -2.0070   -3.3544 H         1 <0>         0.1531
      7 C5          1.3392   -3.9429   -2.5442 C.ar      1 <0>        -0.1205
      8 C6          1.4773   -4.6978   -1.3941 C.ar      1 <0>        -0.1043
      9 C7          1.3986   -6.0762   -1.4576 C.ar      1 <0>        -0.0827
     10 C8          1.1810   -6.7013   -2.6725 C.ar      1 <0>        -0.0147
     11 C9          1.0422   -5.9454   -3.8240 C.ar      1 <0>        -0.0259
     12 C10         1.1161   -4.5655   -3.7577 C.ar      1 <0>        -0.0688
     13 Cl1         0.7696   -6.7283   -5.3493 Cl        1 <0>        -0.0189
     14 Cl2         1.0826   -8.4327   -2.7530 Cl        1 <0>        -0.0180
     15 C11         2.8727   -2.0220   -2.4247 C.2       1 <0>        -0.3070
     16 C12         3.6048   -1.5643   -3.4667 C.2       1 <0>         0.1231
     17 N2          4.8476   -1.3006   -3.0118 N.pl3     1 <0>        -0.4530
     18 H2          5.5874   -0.9593   -3.5382 H         1 <0>         0.4552
     19 N3          4.8805   -1.6062   -1.6451 N.2       1 <0>        -0.2562
     20 C13         3.6947   -2.0328   -1.2931 C.2       1 <0>         0.0544
     21 H3          1.0039    1.9031    0.0027 H         1 <0>         0.0664
     22 H4         -0.5459    1.8868   -0.8726 H         1 <0>         0.0672
     23 H5         -0.5289    1.8773    0.9072 H         1 <0>         0.0778
     24 H6          0.5293   -0.3651    0.8851 H         1 <0>         0.0862
     25 H7         -1.0205   -0.3814    0.0098 H         1 <0>         0.0874
     26 H8          0.1910   -0.1364   -2.1398 H         1 <0>         0.1335
     27 H9          1.7408   -0.1202   -1.2645 H         1 <0>         0.1333
     28 H10         1.2261   -2.3006   -0.4474 H         1 <0>         0.4227
     29 H11         1.6472   -4.2101   -0.4456 H         1 <0>         0.1342
     30 H12         1.5073   -6.6653   -0.5590 H         1 <0>         0.1557
     31 H13         1.0039   -3.9750   -4.6550 H         1 <0>         0.1528
     32 H14         3.2567   -1.4336   -4.4807 H         1 <0>         0.1917
     33 H15         3.4021   -2.3427   -0.3007 H         1 <0>         0.1841
     34 H16        -0.2085   -2.3156   -1.2577 H         1 <0>         0.4329
@<TRIPOS>BOND
     1    1    2 1
     2    1   21 1
     3    1   22 1
     4    1   23 1
     5    2    3 1
     6    2   24 1
     7    2   25 1
     8    3    4 1
     9    3   26 1
    10    3   27 1
    11    4    5 1
    12    4   28 1
    13    4   34 1
    14    5    6 1
    15    5    7 1
    16    5   15 1
    17    7   12 ar
    18    7    8 ar
    19    8    9 ar
    20    8   29 1
    21    9   10 ar
    22    9   30 1
    23   10   11 ar
    24   10   14 1
    25   11   12 ar
    26   11   13 1
    27   12   31 1
    28   15   20 1
    29   15   16 2
    30   16   17 1
    31   16   32 1
    32   17   18 1
    33   17   19 1
    34   19   20 2
    35   20   33 1
@<TRIPOS>MOLECULE
ZINC37162079
   50    51     0     0     0
SMALL
USER_CHARGES

@<TRIPOS>ATOM
      1 C1         -0.4393    1.2549   -1.0519 C.3       1 <0>        -0.1233
      2 C2         -0.0798   -0.1737   -0.7343 C.ar      1 <0>        -0.0736
      3 C3          0.5016   -0.9718   -1.7021 C.ar      1 <0>        -0.1130
      4 C4          0.8313   -2.2820   -1.4108 C.ar      1 <0>        -0.1091
      5 C5          0.5800   -2.7945   -0.1515 C.ar      1 <0>        -0.1282
      6 C6         -0.0004   -1.9964    0.8162 C.ar      1 <0>        -0.0858
      7 C7         -0.3262   -0.6844    0.5261 C.ar      1 <0>        -0.1093
      8 C8         -0.2747   -2.5551    2.1887 C.3       1 <0>        -0.0531
      9 C9          0.8157   -3.5156    2.6920 C.3       1 <0>        -0.1426
     10 C10        -0.3204   -4.3817    3.2613 C.3       1 <0>        -0.0101
     11 C11        -1.2260   -3.7634    2.1831 C.3       1 <0>        -0.1417
     12 N1         -0.1027   -5.8244    3.0904 N.4       1 <0>        -0.4873
     13 C12        -1.1500   -6.5657    3.8055 C.3       1 <0>         0.0032
     14 H1         -1.1911   -6.2285    4.8413 H         1 <0>         0.1611
     15 C13        -2.5016   -6.3151    3.1337 C.3       1 <0>        -0.1408
     16 C14        -3.6068   -7.0002    3.9399 C.3       1 <0>        -0.1028
     17 C15        -3.7361   -6.3231    5.3058 C.3       1 <0>        -0.1643
     18 C16        -4.9334   -6.8859    3.1864 C.3       1 <0>        -0.1514
     19 C17        -0.8365   -8.0393    3.7691 C.2       1 <0>         0.5025
     20 O1         -0.0851   -8.4787    2.9245 O.2       1 <0>        -0.5214
     21 N2         -1.3910   -8.8689    4.6750 N.am      1 <0>        -0.7068
     22 C18        -1.0077  -10.2825    4.7049 C.3       1 <0>         0.0762
     23 H2          0.4075    1.9021   -0.8234 H         1 <0>         0.0762
     24 H3         -0.6869    1.3407   -2.1100 H         1 <0>         0.0715
     25 H4         -1.2984    1.5554   -0.4522 H         1 <0>         0.0697
     26 H5          0.6979   -0.5714   -2.6857 H         1 <0>         0.1272
     27 H6          1.2848   -2.9056   -2.1669 H         1 <0>         0.1263
     28 H7          0.8370   -3.8185    0.0759 H         1 <0>         0.1143
     29 H8         -0.7763   -0.0597    1.2834 H         1 <0>         0.1248
     30 H9         -0.5491   -1.7867    2.9114 H         1 <0>         0.1180
     31 H10         1.3746   -3.9998    1.8912 H         1 <0>         0.1103
     32 H11         1.4599   -3.0824    3.4572 H         1 <0>         0.1083
     33 H12        -0.6064   -4.1133    4.2782 H         1 <0>         0.1653
     34 H13        -2.2301   -3.5302    2.5374 H         1 <0>         0.1077
     35 H14        -1.2252   -4.3153    1.2432 H         1 <0>         0.1094
     36 H15        -0.1373   -6.0558    2.1089 H         1 <0>         0.4329
     37 H16        -2.6935   -5.2429    3.0923 H         1 <0>         0.1091
     38 H17        -2.4852   -6.7206    2.1220 H         1 <0>         0.0965
     39 H18        -3.3569   -8.0521    4.0781 H         1 <0>         0.0819
     40 H19        -4.4713   -6.8570    5.9079 H         1 <0>         0.0742
     41 H20        -2.7710   -6.3393    5.8122 H         1 <0>         0.0507
     42 H21        -4.0581   -5.2906    5.1705 H         1 <0>         0.0694
     43 H22        -4.8413   -7.3682    2.2133 H         1 <0>         0.0614
     44 H23        -5.7208   -7.3740    3.7607 H         1 <0>         0.0698
     45 H24        -5.1833   -5.8339    3.0482 H         1 <0>         0.0633
     46 H25        -2.0440   -8.5300    5.3072 H         1 <0>         0.4116
     47 H26        -1.2445  -10.7435    3.7460 H         1 <0>         0.0743
     48 H27         0.0628  -10.3648    4.8931 H         1 <0>         0.0730
     49 H28        -1.5561  -10.7910    5.4978 H         1 <0>         0.0919
     50 H29         0.8009   -6.0747    3.4632 H         1 <0>         0.4326
@<TRIPOS>BOND
     1    1    2 1
     2    1   23 1
     3    1   24 1
     4    1   25 1
     5    2    7 ar
     6    2    3 ar
     7    3    4 ar
     8    3   26 1
     9    4    5 ar
    10    4   27 1
    11    5    6 ar
    12    5   28 1
    13    6    7 ar
    14    6    8 1
    15    7   29 1
    16    8   11 1
    17    8    9 1
    18    8   30 1
    19    9   10 1
    20    9   31 1
    21    9   32 1
    22   10   11 1
    23   10   12 1
    24   10   33 1
    25   11   34 1
    26   11   35 1
    27   12   13 1
    28   12   36 1
    29   12   50 1
    30   13   14 1
    31   13   15 1
    32   13   19 1
    33   15   16 1
    34   15   37 1
    35   15   38 1
    36   16   17 1
    37   16   18 1
    38   16   39 1
    39   17   40 1
    40   17   41 1
    41   17   42 1
    42   18   43 1
    43   18   44 1
    44   18   45 1
    45   19   20 2
    46   19   21 am
    47   21   22 1
    48   21   46 1
    49   22   47 1
    50   22   48 1
    51   22   49 1
@<TRIPOS>MOLECULE
ZINC38116837
   57    57     0     0     0
SMALL
USER_CHARGES

@<TRIPOS>ATOM
      1 C1         -1.6263   -2.0072   -0.8812 C.3       1 <0>        -0.1556
      2 C2         -2.9758   -1.6719   -1.5195 C.3       1 <0>         0.0445
      3 N1         -3.3081   -0.2662   -1.2523 N.3       1 <0>        -0.5249
      4 C3         -4.5246    0.1332   -1.9724 C.3       1 <0>         0.0406
      5 C4         -4.2590    0.1020   -3.4789 C.3       1 <0>        -0.1540
      6 C5         -3.4462   -0.0228    0.1898 C.3       1 <0>         0.0172
      7 C6         -3.6366    1.4748    0.4383 C.3       1 <0>        -0.0215
      8 N2         -3.8782    1.7070    1.8686 N.4       1 <0>        -0.5302
      9 C7         -3.8881    3.1516    2.1353 C.3       1 <0>         0.0753
     10 C8         -2.4817    3.7178    1.9300 C.3       1 <0>        -0.1261
     11 C9         -1.5094    3.0287    2.8895 C.3       1 <0>        -0.1059
     12 H1         -0.5074    3.4321    2.7433 H         1 <0>         0.1035
     13 C10        -1.9539    3.2779    4.3322 C.3       1 <0>        -0.1282
     14 C11        -3.3604    2.7116    4.5375 C.3       1 <0>        -0.1337
     15 C12        -4.3327    3.4007    3.5779 C.3       1 <0>        -0.0973
     16 H2         -4.3401    4.4726    3.7759 H         1 <0>         0.1224
     17 C13        -5.7391    2.8345    3.7832 C.3       1 <0>        -0.1165
     18 C14        -5.6425    1.3587    4.1753 C.3       1 <0>        -0.1662
     19 C15        -6.4448    3.6126    4.8957 C.3       1 <0>        -0.1502
     20 C16        -1.4990    1.5242    2.6117 C.3       1 <0>        -0.2131
     21 C17        -4.8604    3.8406    1.1758 C.3       1 <0>         0.0570
     22 O1         -4.3638    3.7387   -0.1602 O.3       1 <0>        -0.5671
     23 H3         -1.4167   -3.0689   -1.0111 H         1 <0>         0.0687
     24 H4         -0.8422   -1.4208   -1.3601 H         1 <0>         0.0683
     25 H5         -1.6587   -1.7707    0.1823 H         1 <0>         0.0507
     26 H6         -2.9187   -1.8335   -2.5960 H         1 <0>         0.0923
     27 H7         -3.7477   -2.3146   -1.0961 H         1 <0>         0.0401
     28 H8         -5.3327   -0.5575   -1.7316 H         1 <0>         0.0397
     29 H9         -4.8084    1.1425   -1.6744 H         1 <0>         0.0772
     30 H10        -3.4509    0.7927   -3.7197 H         1 <0>         0.0678
     31 H11        -3.9752   -0.9073   -3.7769 H         1 <0>         0.0600
     32 H12        -5.1616    0.3983   -4.0132 H         1 <0>         0.0658
     33 H13        -4.3112   -0.5669    0.5689 H         1 <0>         0.0496
     34 H14        -2.5479   -0.3651    0.7036 H         1 <0>         0.0965
     35 H15        -2.7393    2.0113    0.1296 H         1 <0>         0.1444
     36 H16        -4.4901    1.8330   -0.1372 H         1 <0>         0.1521
     37 H17        -4.7692    1.3110    2.1278 H         1 <0>         0.4124
     38 H18        -2.1650    3.5403    0.9023 H         1 <0>         0.1007
     39 H19        -2.4891    4.7897    2.1279 H         1 <0>         0.1097
     40 H20        -1.2612    2.7870    5.0158 H         1 <0>         0.0830
     41 H21        -1.9613    4.3498    4.5301 H         1 <0>         0.0827
     42 H22        -3.3530    1.6398    4.3396 H         1 <0>         0.0623
     43 H23        -3.6771    2.8892    5.5652 H         1 <0>         0.0965
     44 H24        -6.3072    2.9281    2.8577 H         1 <0>         0.0814
     45 H25        -6.6393    0.9177    4.1786 H         1 <0>         0.0800
     46 H26        -5.0146    0.8322    3.4566 H         1 <0>         0.0287
     47 H27        -5.2049    1.2749    5.1700 H         1 <0>         0.0841
     48 H28        -6.5924    4.6452    4.5795 H         1 <0>         0.0648
     49 H29        -7.4119    3.1542    5.1025 H         1 <0>         0.0679
     50 H30        -5.8329    3.5926    5.7975 H         1 <0>         0.0654
     51 H31        -1.8549    1.3394    1.5982 H         1 <0>         0.0710
     52 H32        -0.4832    1.1426    2.7154 H         1 <0>         0.1005
     53 H33        -2.1515    1.0187    3.3237 H         1 <0>         0.0730
     54 H34        -5.8359    3.3584    1.2386 H         1 <0>         0.0715
     55 H35        -4.9565    4.8916    1.4485 H         1 <0>         0.0949
     56 H36        -4.9311    4.1549   -0.8236 H         1 <0>         0.4019
     57 H37        -3.1462    1.2703    2.4086 H         1 <0>         0.4248
@<TRIPOS>BOND
     1    1    2 1
     2    1   23 1
     3    1   24 1
     4    1   25 1
     5    2    3 1
     6    2   26 1
     7    2   27 1
     8    3    4 1
     9    3    6 1
    10    4    5 1
    11    4   28 1
    12    4   29 1
    13    5   30 1
    14    5   31 1
    15    5   32 1
    16    6    7 1
    17    6   33 1
    18    6   34 1
    19    7    8 1
    20    7   35 1
    21    7   36 1
    22    8    9 1
    23    8   37 1
    24    8   57 1
    25    9   15 1
    26    9   10 1
    27    9   21 1
    28   10   11 1
    29   10   38 1
    30   10   39 1
    31   11   12 1
    32   11   13 1
    33   11   20 1
    34   13   14 1
    35   13   40 1
    36   13   41 1
    37   14   15 1
    38   14   42 1
    39   14   43 1
    40   15   16 1
    41   15   17 1
    42   17   18 1
    43   17   19 1
    44   17   44 1
    45   18   45 1
    46   18   46 1
    47   18   47 1
    48   19   48 1
    49   19   49 1
    50   19   50 1
    51   20   51 1
    52   20   52 1
    53   20   53 1
    54   21   22 1
    55   21   54 1
    56   21   55 1
    57   22   56 1
@<TRIPOS>MOLECULE
ZINC42857217
   48    49     0     0     0
SMALL
USER_CHARGES

@<TRIPOS>ATOM
      1 C1         -0.0187    1.5258    0.0104 C.3       1 <0>        -0.1552
      2 C2          0.0021   -0.0041    0.0020 C.3       1 <0>         0.0499
      3 O1         -1.3386   -0.4987    0.0122 O.3       1 <0>        -0.3010
      4 C3         -1.4984   -1.8492    0.0064 C.ar      1 <0>         0.1183
      5 C4         -0.3893   -2.6797   -0.0028 C.ar      1 <0>        -0.1658
      6 C5         -0.5535   -4.0523   -0.0082 C.ar      1 <0>        -0.0769
      7 C6         -1.8231   -4.5996   -0.0047 C.ar      1 <0>        -0.1149
      8 C7         -2.9339   -3.7768    0.0040 C.ar      1 <0>        -0.1521
      9 C8         -2.7762   -2.4001    0.0157 C.ar      1 <0>         0.0888
     10 O2         -3.8679   -1.5893    0.0304 O.3       1 <0>        -0.4782
     11 C9         -4.3162   -4.3769    0.0072 C.3       1 <0>         0.0502
     12 N1         -4.8671   -4.3448   -1.3542 N.4       1 <0>        -0.5083
     13 C10        -6.2146   -4.9299   -1.3511 C.3       1 <0>        -0.0128
     14 C11        -6.7883   -4.8964   -2.7691 C.3       1 <0>        -0.1093
     15 H1         -6.0997   -5.3947   -3.4515 H         1 <0>         0.0952
     16 C12        -6.9790   -3.4432   -3.2080 C.3       1 <0>        -0.1291
     17 C13        -7.5528   -3.4097   -4.6259 C.3       1 <0>        -0.1204
     18 C14        -8.9024   -4.1302   -4.6471 C.3       1 <0>        -0.1266
     19 C15        -8.7117   -5.5834   -4.2082 C.3       1 <0>        -0.1175
     20 C16        -8.1379   -5.6169   -2.7903 C.3       1 <0>        -0.0803
     21 H2         -8.8265   -5.1186   -2.1079 H         1 <0>         0.0825
     22 C17        -7.9472   -7.0701   -2.3514 C.3       1 <0>        -0.1611
     23 H3          1.0039    1.9031    0.0027 H         1 <0>         0.0864
     24 H4         -0.5459    1.8868   -0.8726 H         1 <0>         0.0687
     25 H5         -0.5289    1.8773    0.9072 H         1 <0>         0.0704
     26 H6          0.5123   -0.3556   -0.8948 H         1 <0>         0.0677
     27 H7          0.5293   -0.3651    0.8851 H         1 <0>         0.0688
     28 H8          0.6036   -2.2546   -0.0062 H         1 <0>         0.1450
     29 H9          0.3118   -4.6985   -0.0154 H         1 <0>         0.1433
     30 H10        -1.9473   -5.6725   -0.0093 H         1 <0>         0.1404
     31 H11        -4.1920   -1.3501   -0.8487 H         1 <0>         0.3846
     32 H12        -4.2634   -5.4091    0.3535 H         1 <0>         0.1426
     33 H13        -4.9601   -3.8027    0.6733 H         1 <0>         0.1449
     34 H14        -4.9160   -3.3894   -1.6748 H         1 <0>         0.4202
     35 H15        -6.1618   -5.9620   -1.0048 H         1 <0>         0.1380
     36 H16        -6.8585   -4.3556   -0.6850 H         1 <0>         0.1349
     37 H17        -7.6676   -2.9449   -2.5255 H         1 <0>         0.0801
     38 H18        -6.0175   -2.9299   -3.1929 H         1 <0>         0.0552
     39 H19        -7.6886   -2.3744   -4.9386 H         1 <0>         0.0729
     40 H20        -6.8642   -3.9080   -5.3083 H         1 <0>         0.0670
     41 H21        -9.5910   -3.6319   -3.9647 H         1 <0>         0.0668
     42 H22        -9.3111   -4.1063   -5.6573 H         1 <0>         0.0716
     43 H23        -9.6732   -6.0967   -4.2233 H         1 <0>         0.0744
     44 H24        -8.0231   -6.0817   -4.8906 H         1 <0>         0.0672
     45 H25        -7.5385   -7.0939   -1.3412 H         1 <0>         0.0551
     46 H26        -8.9087   -7.5833   -2.3665 H         1 <0>         0.0697
     47 H27        -7.2587   -7.5684   -3.0338 H         1 <0>         0.0614
     48 H28        -4.2711   -4.8764   -1.9708 H         1 <0>         0.4274
@<TRIPOS>BOND
     1    1    2 1
     2    1   23 1
     3    1   24 1
     4    1   25 1
     5    2    3 1
     6    2   26 1
     7    2   27 1
     8    3    4 1
     9    4    9 ar
    10    4    5 ar
    11    5    6 ar
    12    5   28 1
    13    6    7 ar
    14    6   29 1
    15    7    8 ar
    16    7   30 1
    17    8    9 ar
    18    8   11 1
    19    9   10 1
    20   10   31 1
    21   11   12 1
    22   11   32 1
    23   11   33 1
    24   12   13 1
    25   12   34 1
    26   12   48 1
    27   13   14 1
    28   13   35 1
    29   13   36 1
    30   14   15 1
    31   14   20 1
    32   14   16 1
    33   16   17 1
    34   16   37 1
    35   16   38 1
    36   17   18 1
    37   17   39 1
    38   17   40 1
    39   18   19 1
    40   18   41 1
    41   18   42 1
    42   19   20 1
    43   19   43 1
    44   19   44 1
    45   20   21 1
    46   20   22 1
    47   22   45 1
    48   22   46 1
    49   22   47 1
@<TRIPOS>MOLECULE
ZINC52337143
   57    58     0     0     0
SMALL
USER_CHARGES

@<TRIPOS>ATOM
      1 C1         -0.0187    1.5258    0.0104 C.3       1 <0>        -0.1521
      2 C2          0.0021   -0.0041    0.0020 C.3       1 <0>        -0.0855
      3 H1         -1.0205   -0.3814    0.0098 H         1 <0>         0.0758
      4 C3          0.7182   -0.4975   -1.2568 C.3       1 <0>        -0.1184
      5 C4          0.7390   -2.0273   -1.2652 C.3       1 <0>        -0.1132
      6 C5          1.4790   -2.5342   -0.0257 C.3       1 <0>        -0.1426
      7 C6          0.7628   -2.0407    1.2331 C.3       1 <0>         0.0925
      8 H2          1.2900   -2.4018    2.1162 H         1 <0>         0.0619
      9 C7          0.7421   -0.5109    1.2415 C.3       1 <0>        -0.1119
     10 O1         -0.5778   -2.5354    1.2433 O.3       1 <0>        -0.3607
     11 C8         -0.7256   -3.8007    1.8907 C.3       1 <0>         0.0313
     12 C9         -2.1933   -4.2302    1.8420 C.3       1 <0>         0.0868
     13 H3         -2.5384   -4.2280    0.8080 H         1 <0>         0.1303
     14 C10        -2.3321   -5.6387    2.4230 C.3       1 <0>        -0.0468
     15 N1         -3.7187   -6.0982    2.2673 N.4       1 <0>        -0.5031
     16 C11        -3.8519   -7.4506    2.8252 C.3       1 <0>         0.0276
     17 H4         -3.1205   -8.1100    2.3580 H         1 <0>         0.1405
     18 C12        -3.6074   -7.4059    4.3349 C.3       1 <0>        -0.1888
     19 C13        -5.2619   -7.9782    2.5523 C.3       1 <0>        -0.1081
     20 C14        -6.2886   -7.0526    3.2081 C.3       1 <0>        -0.1327
     21 C15        -7.6986   -7.5802    2.9352 C.3       1 <0>        -0.1202
     22 C16        -7.8374   -8.9887    3.5162 C.3       1 <0>        -0.1263
     23 C17        -6.8107   -9.9144    2.8605 C.3       1 <0>        -0.1229
     24 C18        -5.4007   -9.3868    3.1334 C.3       1 <0>        -0.1125
     25 O2         -2.9821   -3.3185    2.6093 O.3       1 <0>        -0.5433
     26 H5          1.0039    1.9031    0.0027 H         1 <0>         0.0551
     27 H6         -0.5459    1.8868   -0.8726 H         1 <0>         0.0567
     28 H7         -0.5289    1.8773    0.9072 H         1 <0>         0.0549
     29 H8          0.1910   -0.1364   -2.1398 H         1 <0>         0.0643
     30 H9          1.7408   -0.1202   -1.2645 H         1 <0>         0.0625
     31 H10        -0.2836   -2.4046   -1.2575 H         1 <0>         0.0646
     32 H11         1.2492   -2.3788   -2.1620 H         1 <0>         0.0617
     33 H12         1.4937   -3.6240   -0.0317 H         1 <0>         0.0597
     34 H13         2.5015   -2.1569   -0.0334 H         1 <0>         0.0765
     35 H14         1.7647   -0.1336    1.2338 H         1 <0>         0.0792
     36 H15         0.2319   -0.1594    2.1383 H         1 <0>         0.0695
     37 H16        -0.1125   -4.5437    1.3805 H         1 <0>         0.0661
     38 H17        -0.4058   -3.7170    2.9293 H         1 <0>         0.0620
     39 H18        -1.6629   -6.3174    1.8942 H         1 <0>         0.1440
     40 H19        -2.0713   -5.6225    3.4812 H         1 <0>         0.1390
     41 H20        -4.3381   -5.4699    2.7568 H         1 <0>         0.4299
     42 H21        -3.7063   -8.4094    4.7488 H         1 <0>         0.1102
     43 H22        -2.6029   -7.0300    4.5293 H         1 <0>         0.0796
     44 H23        -4.3388   -6.7465    4.8020 H         1 <0>         0.0857
     45 H24        -5.4361   -8.0100    1.4768 H         1 <0>         0.0961
     46 H25        -6.1144   -7.0207    4.2836 H         1 <0>         0.0811
     47 H26        -6.1897   -6.0491    2.7941 H         1 <0>         0.0572
     48 H27        -8.4300   -6.9207    3.4023 H         1 <0>         0.0733
     49 H28        -7.8728   -7.6120    1.8597 H         1 <0>         0.0677
     50 H29        -7.6632   -8.9569    4.5917 H         1 <0>         0.0661
     51 H30        -8.8419   -9.3646    3.3218 H         1 <0>         0.0715
     52 H31        -6.9095  -10.9179    3.2744 H         1 <0>         0.0743
     53 H32        -6.9849   -9.9462    1.7850 H         1 <0>         0.0670
     54 H33        -4.6692  -10.0462    2.6662 H         1 <0>         0.0737
     55 H34        -5.2265   -9.3549    4.2089 H         1 <0>         0.0765
     56 H35        -2.7301   -3.2687    3.5416 H         1 <0>         0.3877
     57 H36        -3.9600   -6.1132    1.2877 H         1 <0>         0.4290
@<TRIPOS>BOND
     1    1    2 1
     2    1   26 1
     3    1   27 1
     4    1   28 1
     5    2    3 1
     6    2    9 1
     7    2    4 1
     8    4    5 1
     9    4   29 1
    10    4   30 1
    11    5    6 1
    12    5   31 1
    13    5   32 1
    14    6    7 1
    15    6   33 1
    16    6   34 1
    17    7    8 1
    18    7    9 1
    19    7   10 1
    20    9   35 1
    21    9   36 1
    22   10   11 1
    23   11   12 1
    24   11   37 1
    25   11   38 1
    26   12   13 1
    27   12   14 1
    28   12   25 1
    29   14   15 1
    30   14   39 1
    31   14   40 1
    32   15   16 1
    33   15   41 1
    34   15   57 1
    35   16   17 1
    36   16   18 1
    37   16   19 1
    38   18   42 1
    39   18   43 1
    40   18   44 1
    41   19   24 1
    42   19   20 1
    43   19   45 1
    44   20   21 1
    45   20   46 1
    46   20   47 1
    47   21   22 1
    48   21   48 1
    49   21   49 1
    50   22   23 1
    51   22   50 1
    52   22   51 1
    53   23   24 1
    54   23   52 1
    55   23   53 1
    56   24   54 1
    57   24   55 1
    58   25   56 1
@<TRIPOS>MOLECULE
ZINC62893577
   52    52     0     0     0
SMALL
USER_CHARGES

@<TRIPOS>ATOM
      1 C1          0.6431    2.1569    2.0579 C.3       1 <0>        -0.1565
      2 C2          0.3297    1.3604    0.7898 C.3       1 <0>        -0.1331
      3 C3          0.3544   -0.1359    1.1082 C.3       1 <0>        -0.1144
      4 C4         -0.0747   -0.9277   -0.1286 C.3       1 <0>        -0.1030
      5 C5         -0.0671   -2.4435    0.1753 C.3       1 <0>        -0.1429
      6 C6          0.4909   -3.0565   -1.1337 C.3       1 <0>        -0.0031
      7 N1          1.5191   -2.0724   -1.5586 N.4       1 <0>        -0.5130
      8 C7          0.9478   -0.7402   -1.2647 C.3       1 <0>        -0.0016
      9 C8         -1.4442   -0.4896   -0.5799 C.2       1 <0>         0.5170
     10 O1         -1.6167   -0.1192   -1.7218 O.2       1 <0>        -0.5249
     11 N2         -2.4772   -0.5093    0.2855 N.am      1 <0>        -0.7105
     12 C9         -3.7806    0.0245   -0.1175 C.3       1 <0>         0.1741
     13 C10        -3.6106    1.4591   -0.6213 C.3       1 <0>        -0.1668
     14 C11        -4.3634   -0.8428   -1.2352 C.3       1 <0>        -0.1629
     15 C12        -4.7291    0.0145    1.0829 C.3       1 <0>        -0.1190
     16 C13        -4.3099   -1.0902    2.0550 C.3       1 <0>        -0.0742
     17 C14        -3.1004   -0.6229    2.8671 C.3       1 <0>        -0.1660
     18 C15        -5.4700   -1.4033    3.0021 C.3       1 <0>        -0.1444
     19 C16        -3.9402   -2.3489    1.2678 C.3       1 <0>        -0.1864
     20 H1         -0.1038    1.9352    2.8202 H         1 <0>         0.0589
     21 H2          1.6311    1.8801    2.4260 H         1 <0>         0.0589
     22 H3          0.6255    3.2229    1.8311 H         1 <0>         0.0636
     23 H4         -0.6582    1.6372    0.4217 H         1 <0>         0.0700
     24 H5          1.0767    1.5820    0.0276 H         1 <0>         0.0664
     25 H6          1.3641   -0.4296    1.3954 H         1 <0>         0.0869
     26 H7         -0.3318   -0.3441    1.9291 H         1 <0>         0.0856
     27 H8          0.5905   -2.6650    1.0159 H         1 <0>         0.1146
     28 H9         -1.0776   -2.8031    0.3695 H         1 <0>         0.1175
     29 H10         0.9452   -4.0283   -0.9403 H         1 <0>         0.1447
     30 H11        -0.2947   -3.1406   -1.8845 H         1 <0>         0.1378
     31 H12         2.3699   -2.2096   -1.0338 H         1 <0>         0.4314
     32 H13         0.4503   -0.3458   -2.1507 H         1 <0>         0.1565
     33 H14         1.7373   -0.0599   -0.9451 H         1 <0>         0.1425
     34 H15        -2.3577   -0.8768    1.1751 H         1 <0>         0.4142
     35 H16        -3.0067    1.4564   -1.5287 H         1 <0>         0.0802
     36 H17        -4.5897    1.8866   -0.8378 H         1 <0>         0.0709
     37 H18        -3.1144    2.0564    0.1436 H         1 <0>         0.0558
     38 H19        -4.0833   -1.8834   -1.0711 H         1 <0>         0.0619
     39 H20        -5.4499   -0.7546   -1.2345 H         1 <0>         0.0682
     40 H21        -3.9723   -0.5084   -2.1960 H         1 <0>         0.0693
     41 H22        -4.6854    0.9792    1.5885 H         1 <0>         0.0769
     42 H23        -5.7472   -0.1703    0.7401 H         1 <0>         0.0855
     43 H24        -2.8326    0.3910    2.5695 H         1 <0>         0.0661
     44 H25        -3.3481   -0.6365    3.9285 H         1 <0>         0.0745
     45 H26        -2.2586   -1.2902    2.6819 H         1 <0>         0.0540
     46 H27        -6.3317   -1.7362    2.4236 H         1 <0>         0.0593
     47 H28        -5.1713   -2.1903    3.6946 H         1 <0>         0.0595
     48 H29        -5.7334   -0.5066    3.5630 H         1 <0>         0.0602
     49 H30        -3.1519   -2.1121    0.5532 H         1 <0>         0.0825
     50 H31        -3.5880   -3.1174    1.9559 H         1 <0>         0.0557
     51 H32        -4.8173   -2.7140    0.7334 H         1 <0>         0.0644
     52 H33         1.6999   -2.1630   -2.5471 H         1 <0>         0.4373
@<TRIPOS>BOND
     1    1    2 1
     2    1   20 1
     3    1   21 1
     4    1   22 1
     5    2    3 1
     6    2   23 1
     7    2   24 1
     8    3    4 1
     9    3   25 1
    10    3   26 1
    11    4    8 1
    12    4    5 1
    13    4    9 1
    14    5    6 1
    15    5   27 1
    16    5   28 1
    17    6    7 1
    18    6   29 1
    19    6   30 1
    20    7    8 1
    21    7   31 1
    22    7   52 1
    23    8   32 1
    24    8   33 1
    25    9   10 2
    26    9   11 am
    27   11   12 1
    28   11   34 1
    29   12   13 1
    30   12   14 1
    31   12   15 1
    32   13   35 1
    33   13   36 1
    34   13   37 1
    35   14   38 1
    36   14   39 1
    37   14   40 1
    38   15   16 1
    39   15   41 1
    40   15   42 1
    41   16   17 1
    42   16   18 1
    43   16   19 1
    44   17   43 1
    45   17   44 1
    46   17   45 1
    47   18   46 1
    48   18   47 1
    49   18   48 1
    50   19   49 1
    51   19   50 1
    52   19   51 1
@<TRIPOS>MOLECULE
ZINC12996191
   50    52     0     0     0
SMALL
USER_CHARGES
N-(2,3-dimethyl-5-sulfamoyl-phenyl)-2-[(4R)-4-methyl-6,7-dihydro-4H-thieno[3,2-c]pyridin-5-yl]acetamide
@<TRIPOS>ATOM
      1 C1         -1.2347    1.2003    0.1945 C.3       1 <0>        -0.1257
      2 C2         -0.5693   -0.1477    0.0895 C.ar      1 <0>        -0.0799
      3 C3          0.0553   -0.6977    1.1941 C.ar      1 <0>        -0.0198
      4 C4          0.6662   -1.9346    1.1021 C.ar      1 <0>        -0.6595
      5 C5          0.6551   -2.6247   -0.0945 C.ar      1 <0>        -0.0265
      6 C6          0.0293   -2.0751   -1.2054 C.ar      1 <0>         0.1069
      7 C7         -0.5887   -0.8351   -1.1081 C.ar      1 <0>        -0.0447
      8 C8         -1.2749   -0.2378   -2.3095 C.3       1 <0>        -0.1335
      9 N1          0.0168   -2.7714   -2.4191 N.am      1 <0>        -0.6398
     10 C9          0.1367   -4.1138   -2.4271 C.2       1 <0>         0.4988
     11 O1          0.1548   -4.7273   -1.3810 O.2       1 <0>        -0.5056
     12 C10         0.2484   -4.8524   -3.7359 C.3       1 <0>        -0.0310
     13 C11         1.6156   -6.5983   -2.7621 C.3       1 <0>        -0.0013
     14 C12         1.5087   -8.0087   -2.1576 C.3       1 <0>        -0.0594
     15 C13         0.9768   -8.9182   -3.2167 C.2       1 <0>        -0.1855
     16 C14         0.3962   -8.5465   -4.3920 C.2       1 <0>        -0.1546
     17 C15        -0.0250   -9.5756   -5.2307 C.2       1 <0>        -0.1511
     18 C16         0.1505  -10.8656   -4.8601 C.2       1 <0>        -0.1526
     19 S1          0.9403  -10.6875   -3.2669 S.3       1 <0>         0.1433
     20 C17         0.2409   -7.0644   -4.7195 C.3       1 <0>         0.1063
     21 H1          1.0177   -6.7587   -5.4205 H         1 <0>         0.1501
     22 C18        -1.1360   -6.8169   -5.3390 C.3       1 <0>        -0.1835
     23 S2          1.4600   -2.6312    2.5125 S.o2      1 <0>         2.7020
     24 O2          2.4266   -3.5500    2.0220 O.2       1 <0>        -0.9609
     25 O3          1.8034   -1.5456    3.3627 O.2       1 <0>        -0.9511
     26 N2          0.3249   -3.5253    3.3215 N.pl3     1 <0>        -1.2457
     27 H2         -0.5147    1.9810   -0.0511 H         1 <0>         0.0832
     28 H3         -2.0726    1.2471   -0.5010 H         1 <0>         0.0775
     29 H4         -1.5979    1.3480    1.2115 H         1 <0>         0.0785
     30 H5          0.0656   -0.1600    2.1307 H         1 <0>         0.1510
     31 H6          1.1325   -3.5909   -0.1657 H         1 <0>         0.1617
     32 H7         -0.5613    0.3616   -2.8749 H         1 <0>         0.0875
     33 H8         -1.6600   -1.0371   -2.9426 H         1 <0>         0.0667
     34 H9         -2.0996    0.3941   -1.9801 H         1 <0>         0.0907
     35 H10        -0.0782   -2.2879   -3.2546 H         1 <0>         0.4224
     36 H11        -0.6414   -4.6640   -4.3366 H         1 <0>         0.1652
     37 H12         1.1305   -4.5060   -4.2745 H         1 <0>         0.1693
     38 H13         2.4534   -6.5616   -3.4584 H         1 <0>         0.1361
     39 H14         1.7679   -5.8701   -1.9655 H         1 <0>         0.1498
     40 H15         0.8283   -7.9955   -1.3062 H         1 <0>         0.1150
     41 H16         2.4939   -8.3493   -1.8389 H         1 <0>         0.1302
     42 H17        -0.4918   -9.3443   -6.1767 H         1 <0>         0.1433
     43 H18        -0.1173  -11.7680   -5.3896 H         1 <0>         0.1996
     44 H19        -1.2504   -5.7553   -5.5581 H         1 <0>         0.0839
     45 H20        -1.2277   -7.3901   -6.2616 H         1 <0>         0.1117
     46 H21        -1.9109   -7.1289   -4.6388 H         1 <0>         0.0851
     47 H22         0.5950   -4.3046    3.8319 H         1 <0>         0.4241
     48 H23        -0.6101   -3.2696    3.2850 H         1 <0>         0.4180
     49 N3          0.3392   -6.2985   -3.4548 N.4       1 <0>        -0.3823
     50 H24        -0.4402   -6.5684   -2.8433 H         1 <0>         0.4356
@<TRIPOS>BOND
     1    1    2 1
     2    1   27 1
     3    1   28 1
     4    1   29 1
     5    2    7 ar
     6    2    3 ar
     7    3    4 ar
     8    3   30 1
     9    4    5 ar
    10    4   23 1
    11    5    6 ar
    12    5   31 1
    13    6    7 ar
    14    6    9 1
    15    7    8 1
    16    8   32 1
    17    8   33 1
    18    8   34 1
    19    9   10 am
    20    9   35 1
    21   10   11 2
    22   10   12 1
    23   12   36 1
    24   12   37 1
    25   12   49 1
    26   13   14 1
    27   13   38 1
    28   13   39 1
    29   13   49 1
    30   14   15 1
    31   14   40 1
    32   14   41 1
    33   15   19 1
    34   15   16 2
    35   16   17 1
    36   16   20 1
    37   17   18 2
    38   17   42 1
    39   18   19 1
    40   18   43 1
    41   20   21 1
    42   20   22 1
    43   20   49 1
    44   22   44 1
    45   22   45 1
    46   22   46 1
    47   23   24 2
    48   23   25 2
    49   23   26 1
    50   26   47 1
    51   26   48 1
    52   49   50 1
@<TRIPOS>MOLECULE
ZINC35904214
   55    57     0     0     0
SMALL
USER_CHARGES

@<TRIPOS>ATOM
      1 C1         -0.0187    1.5258    0.0104 C.3       1 <0>        -0.1496
      2 C2          0.0021   -0.0041    0.0020 C.3       1 <0>        -0.0874
      3 H1          0.5120   -0.3573   -0.8943 H         1 <0>         0.0779
      4 C3         -1.4336   -0.5366    0.0188 C.3       1 <0>        -0.1158
      5 C4         -1.4325   -2.0454   -0.2369 C.3       1 <0>        -0.0621
      6 C5         -0.4637   -2.7038    0.7343 C.2       1 <0>        -0.0672
      7 C6          0.4847   -1.9863    1.3743 C.2       1 <0>        -0.1954
      8 S1          1.3433   -3.1672    2.3728 S.3       1 <0>         0.2884
      9 C7          0.4924   -4.5573    1.9680 C.2       1 <0>        -0.0041
     10 C8         -0.4593   -4.1191    1.0608 C.2       1 <0>        -0.1970
     11 C9         -1.4215   -5.0455    0.4559 C.2       1 <0>         0.5772
     12 O1         -1.1491   -5.6106   -0.5871 O.2       1 <0>        -0.5259
     13 N1         -2.6076   -5.2713    1.0548 N.am      1 <0>        -0.8464
     14 N2          0.6957   -5.8473    2.4341 N.am      1 <0>        -0.5922
     15 C10         1.6774   -6.0956    3.3236 C.2       1 <0>         0.4946
     16 O2          2.3830   -5.1907    3.7163 O.2       1 <0>        -0.4932
     17 C11         1.8984   -7.4976    3.8301 C.3       1 <0>        -0.0238
     18 N3          3.0178   -7.5038    4.7813 N.4       1 <0>        -0.3711
     19 C12         2.6597   -6.7076    5.9613 C.3       1 <0>        -0.0196
     20 C13         3.8515   -6.6436    6.9189 C.3       1 <0>        -0.1079
     21 H2          4.6998   -6.1814    6.4139 H         1 <0>         0.0970
     22 C14         4.2267   -8.0632    7.3538 C.3       1 <0>        -0.1307
     23 C15         4.5261   -8.9052    6.1102 C.3       1 <0>        -0.1111
     24 H3          4.7398   -9.9316    6.4083 H         1 <0>         0.1224
     25 C16         3.3093   -8.8854    5.1825 C.3       1 <0>        -0.0046
     26 C17         5.7371   -8.3230    5.3784 C.3       1 <0>        -0.1732
     27 C18         3.4751   -5.8143    8.1483 C.3       1 <0>        -0.1504
     28 C19         0.7393   -0.5154    1.2485 C.3       1 <0>        -0.0357
     29 H4          1.0039    1.9031    0.0027 H         1 <0>         0.0596
     30 H5         -0.5459    1.8868   -0.8726 H         1 <0>         0.0618
     31 H6         -0.5289    1.8773    0.9072 H         1 <0>         0.0584
     32 H7         -1.8834   -0.3344    0.9909 H         1 <0>         0.0685
     33 H8         -2.0138   -0.0382   -0.7578 H         1 <0>         0.0762
     34 H9         -2.4349   -2.4436   -0.0798 H         1 <0>         0.0760
     35 H10        -1.1145   -2.2425   -1.2606 H         1 <0>         0.0839
     36 H11        -2.8247   -4.8209    1.8860 H         1 <0>         0.4042
     37 H12        -3.2441   -5.8842    0.6546 H         1 <0>         0.4075
     38 H13         0.1314   -6.5710    2.1200 H         1 <0>         0.4262
     39 H14         0.9956   -7.8501    4.3290 H         1 <0>         0.1665
     40 H15         2.1302   -8.1545    2.9918 H         1 <0>         0.1678
     41 H16         2.3899   -5.6985    5.6498 H         1 <0>         0.1465
     42 H17         1.8120   -7.1696    6.4672 H         1 <0>         0.1271
     43 H18         5.1102   -8.0276    7.9912 H         1 <0>         0.0962
     44 H19         3.3968   -8.5073    7.9035 H         1 <0>         0.0835
     45 H20         2.4477   -9.3010    5.7051 H         1 <0>         0.1337
     46 H21         3.5190   -9.4841    4.2961 H         1 <0>         0.1338
     47 H22         6.6022   -8.3344    6.0414 H         1 <0>         0.0865
     48 H23         5.9496   -8.9227    4.4934 H         1 <0>         0.0735
     49 H24         5.5222   -7.2972    5.0792 H         1 <0>         0.0528
     50 H25         2.6278   -6.2778    8.6537 H         1 <0>         0.0661
     51 H26         4.3244   -5.7691    8.8300 H         1 <0>         0.0780
     52 H27         3.2049   -4.8052    7.8371 H         1 <0>         0.0694
     53 H28         1.8088   -0.3333    1.1434 H         1 <0>         0.0855
     54 H29         0.3640   -0.0020    2.1338 H         1 <0>         0.0884
     55 H30         3.8331   -7.1030    4.3423 H         1 <0>         0.4295
@<TRIPOS>BOND
     1    1    2 1
     2    1   29 1
     3    1   30 1
     4    1   31 1
     5    2    3 1
     6    2   28 1
     7    2    4 1
     8    4    5 1
     9    4   32 1
    10    4   33 1
    11    5    6 1
    12    5   34 1
    13    5   35 1
    14    6   10 1
    15    6    7 2
    16    7    8 1
    17    7   28 1
    18    8    9 1
    19    9   10 2
    20    9   14 1
    21   10   11 1
    22   11   12 2
    23   11   13 am
    24   13   36 1
    25   13   37 1
    26   14   15 am
    27   14   38 1
    28   15   16 2
    29   15   17 1
    30   17   18 1
    31   17   39 1
    32   17   40 1
    33   18   25 1
    34   18   19 1
    35   18   55 1
    36   19   20 1
    37   19   41 1
    38   19   42 1
    39   20   21 1
    40   20   22 1
    41   20   27 1
    42   22   23 1
    43   22   43 1
    44   22   44 1
    45   23   24 1
    46   23   25 1
    47   23   26 1
    48   25   45 1
    49   25   46 1
    50   26   47 1
    51   26   48 1
    52   26   49 1
    53   27   50 1
    54   27   51 1
    55   27   52 1
    56   28   53 1
    57   28   54 1
@<TRIPOS>MOLECULE
ZINC54571725
   56    58     0     0     0
SMALL
USER_CHARGES

@<TRIPOS>ATOM
      1 C1         -0.0651    1.3900   -0.7441 C.3       1 <0>        -0.1761
      2 C2         -0.0693   -0.1144   -0.6556 C.2       1 <0>         0.5132
      3 O1          0.8605   -0.7509   -1.1044 O.2       1 <0>        -0.5127
      4 N1         -1.1063   -0.7526   -0.0778 N.am      1 <0>        -0.6808
      5 C3         -1.1596   -2.1508   -0.0858 C.ar      1 <0>         0.1657
      6 C4          0.0123   -2.8886   -0.0001 C.ar      1 <0>        -0.1018
      7 C5         -0.0443   -4.2683   -0.0088 C.ar      1 <0>        -0.0838
      8 C6         -1.2645   -4.9083   -0.1041 C.ar      1 <0>        -0.1091
      9 C7         -2.4391   -4.1752   -0.1911 C.ar      1 <0>        -0.1112
     10 C8         -2.3887   -2.7984   -0.1740 C.ar      1 <0>        -0.1224
     11 C9         -3.6418   -1.9644   -0.2512 C.3       1 <0>        -0.1046
     12 C10        -4.8074   -2.8255   -0.7397 C.3       1 <0>        -0.0006
     13 N2         -4.8650   -4.0455    0.0799 N.4       1 <0>        -0.3815
     14 C11        -3.7446   -4.9184   -0.2978 C.3       1 <0>         0.0488
     15 C12        -6.1336   -4.7439   -0.1665 C.3       1 <0>         0.0534
     16 C13        -6.2526   -5.9160    0.7732 C.ar      1 <0>        -0.1645
     17 C14        -6.0573   -7.2017    0.3031 C.ar      1 <0>        -0.0849
     18 C15        -6.1657   -8.2789    1.1622 C.ar      1 <0>        -0.0476
     19 C16        -6.4704   -8.0757    2.4957 C.ar      1 <0>        -0.1041
     20 C17        -6.6673   -6.7903    2.9731 C.ar      1 <0>         0.0972
     21 C18        -6.5520   -5.7050    2.1091 C.ar      1 <0>         0.0923
     22 O2         -6.7389   -4.4409    2.5743 O.3       1 <0>        -0.4998
     23 O3         -6.9670   -6.5888    4.2842 O.3       1 <0>        -0.4861
     24 C19        -5.9518   -9.6779    0.6446 C.3       1 <0>        -0.0329
     25 C20        -4.5375   -9.7999    0.0738 C.3       1 <0>        -0.1418
     26 C21        -6.1278  -10.6777    1.7893 C.3       1 <0>        -0.1531
     27 C22        -6.9730   -9.9766   -0.4550 C.3       1 <0>        -0.1430
     28 H1          0.8473    1.7222   -1.2393 H         1 <0>         0.1033
     29 H2         -0.9310    1.7227   -1.3164 H         1 <0>         0.0951
     30 H3         -0.1085    1.8131    0.2595 H         1 <0>         0.0965
     31 H4         -1.8157   -0.2426    0.3436 H         1 <0>         0.4132
     32 H5          0.9653   -2.3857    0.0728 H         1 <0>         0.1519
     33 H6          0.8652   -4.8467    0.0585 H         1 <0>         0.1408
     34 H7         -1.3046   -5.9875   -0.1114 H         1 <0>         0.1348
     35 H8         -3.8741   -1.5669    0.7368 H         1 <0>         0.1019
     36 H9         -3.4854   -1.1387   -0.9454 H         1 <0>         0.1194
     37 H10        -5.7402   -2.2711   -0.6368 H         1 <0>         0.1379
     38 H11        -4.6515   -3.0936   -1.7847 H         1 <0>         0.1338
     39 H12        -3.8758   -5.2693   -1.3214 H         1 <0>         0.1395
     40 H13        -3.7264   -5.7753    0.3757 H         1 <0>         0.1354
     41 H14        -6.9643   -4.0582    0.0009 H         1 <0>         0.1387
     42 H15        -6.1583   -5.0999   -1.1964 H         1 <0>         0.1383
     43 H16        -5.8198   -7.3645   -0.7379 H         1 <0>         0.1398
     44 H17        -6.5552   -8.9192    3.1648 H         1 <0>         0.1501
     45 H18        -7.6648   -4.1627    2.5962 H         1 <0>         0.4065
     46 H19        -6.1927   -6.4682    4.8507 H         1 <0>         0.4017
     47 H20        -3.8100   -9.5871    0.8571 H         1 <0>         0.0589
     48 H21        -4.3828  -10.8118   -0.3006 H         1 <0>         0.0690
     49 H22        -4.4121   -9.0876   -0.7417 H         1 <0>         0.0559
     50 H23        -7.1354  -10.5908    2.1958 H         1 <0>         0.0625
     51 H24        -5.9731  -11.6896    1.4148 H         1 <0>         0.0690
     52 H25        -5.4003  -10.4650    2.5726 H         1 <0>         0.0612
     53 H26        -6.8476   -9.2643   -1.2705 H         1 <0>         0.0570
     54 H27        -6.8183  -10.9885   -0.8294 H         1 <0>         0.0686
     55 H28        -7.9806   -9.8897   -0.0484 H         1 <0>         0.0604
     56 H29        -4.7973   -3.7999    1.0562 H         1 <0>         0.4309
@<TRIPOS>BOND
     1    1    2 1
     2    1   28 1
     3    1   29 1
     4    1   30 1
     5    2    3 2
     6    2    4 am
     7    4    5 1
     8    4   31 1
     9    5   10 ar
    10    5    6 ar
    11    6    7 ar
    12    6   32 1
    13    7    8 ar
    14    7   33 1
    15    8    9 ar
    16    8   34 1
    17    9   14 1
    18    9   10 ar
    19   10   11 1
    20   11   12 1
    21   11   35 1
    22   11   36 1
    23   12   13 1
    24   12   37 1
    25   12   38 1
    26   13   14 1
    27   13   15 1
    28   13   56 1
    29   14   39 1
    30   14   40 1
    31   15   16 1
    32   15   41 1
    33   15   42 1
    34   16   21 ar
    35   16   17 ar
    36   17   18 ar
    37   17   43 1
    38   18   19 ar
    39   18   24 1
    40   19   20 ar
    41   19   44 1
    42   20   21 ar
    43   20   23 1
    44   21   22 1
    45   22   45 1
    46   23   46 1
    47   24   25 1
    48   24   26 1
    49   24   27 1
    50   25   47 1
    51   25   48 1
    52   25   49 1
    53   26   50 1
    54   26   51 1
    55   26   52 1
    56   27   53 1
    57   27   54 1
    58   27   55 1
@<TRIPOS>MOLECULE
ZINC63686377
   49    52     0     0     0
SMALL
USER_CHARGES

@<TRIPOS>ATOM
      1 C1          0.0929    1.4921    0.2626 C.3       1 <0>        -0.1179
      2 C2          0.1015   -0.0147    0.2357 C.ar      1 <0>        -0.1077
      3 C3          0.2011   -0.6810   -0.9780 C.ar      1 <0>        -0.0552
      4 C4          0.2112   -2.0577   -1.0259 C.ar      1 <0>        -0.1329
      5 C5          0.1206   -2.7895    0.1548 C.ar      1 <0>         0.1833
      6 C6          0.0199   -2.1087    1.3805 C.ar      1 <0>        -0.1876
      7 C7          0.0167   -0.7140    1.4072 C.ar      1 <0>        -0.0364
      8 C8         -0.0750   -2.9021    2.6184 C.2       1 <0>         0.4148
      9 O1         -0.1647   -2.3614    3.7085 O.2       1 <0>        -0.4762
     10 C9         -0.0593   -4.3117    2.5008 C.2       1 <0>        -0.2670
     11 C10         0.0406   -4.8880    1.2850 C.2       1 <0>         0.1926
     12 N1          0.1275   -4.1663    0.1416 N.pl3     1 <0>        -0.6051
     13 C11         0.0551   -6.3923    1.1953 C.3       1 <0>        -0.0695
     14 S1         -1.5507   -6.9772    0.5873 S.3       1 <0>        -0.1363
     15 C12        -1.3213   -8.7662    0.3932 C.3       1 <0>         0.1787
     16 H1         -0.3501   -8.9790   -0.0534 H         1 <0>         0.1819
     17 N2         -1.4523   -9.4527    1.7051 N.3       1 <0>        -0.4385
     18 N3         -1.8254  -10.8246    1.3263 N.3       1 <0>        -0.4619
     19 C13        -2.7321  -10.6551    0.1681 C.3       1 <0>         0.2616
     20 H2         -3.7700  -10.6700    0.5008 H         1 <0>         0.1474
     21 N4         -2.4086   -9.3417   -0.4319 N.4       1 <0>        -0.4046
     22 C14        -3.5878   -8.4664   -0.3937 C.3       1 <0>        -0.0627
     23 C15        -2.4965  -11.7527   -0.8373 C.2       1 <0>        -0.1049
     24 C16        -2.1104  -13.0096   -0.5538 C.2       1 <0>        -0.1034
     25 C17        -2.0121  -13.6958   -1.7860 C.2       1 <0>        -0.2130
     26 C18        -2.3439  -12.8170   -2.7489 C.2       1 <0>         0.0142
     27 O2         -2.6420  -11.6434   -2.1680 O.3       1 <0>        -0.1872
     28 C19         0.3194   -2.7682   -2.3505 C.3       1 <0>        -0.1128
     29 H3          1.1156    1.8598    0.3459 H         1 <0>         0.0757
     30 H4         -0.3551    1.8693   -0.6567 H         1 <0>         0.0707
     31 H5         -0.4880    1.8369    1.1180 H         1 <0>         0.0718
     32 H6          0.2711   -0.1140   -1.8945 H         1 <0>         0.1363
     33 H7         -0.0565   -0.1894    2.3483 H         1 <0>         0.1418
     34 H8         -0.1269   -4.9274    3.3855 H         1 <0>         0.1557
     35 H9          0.1969   -4.6310   -0.7070 H         1 <0>         0.4153
     36 H10         0.8405   -6.7077    0.5084 H         1 <0>         0.1214
     37 H11         0.2452   -6.8134    2.1825 H         1 <0>         0.1398
     38 H12        -2.1724   -9.0243    2.2671 H         1 <0>         0.3563
     39 H13        -2.2937  -11.2949    2.0863 H         1 <0>         0.3944
     40 H14        -3.3570   -7.5241   -0.8905 H         1 <0>         0.1449
     41 H15        -4.4182   -8.9531   -0.9053 H         1 <0>         0.1420
     42 H16        -3.8631   -8.2727    0.6430 H         1 <0>         0.1289
     43 H17        -1.9129  -13.4165    0.4270 H         1 <0>         0.1639
     44 H18        -1.7252  -14.7273   -1.9272 H         1 <0>         0.1664
     45 H19        -2.3701  -13.0217   -3.8090 H         1 <0>         0.2216
     46 H20         1.3700   -2.9348   -2.5887 H         1 <0>         0.0767
     47 H21        -0.1962   -3.7267   -2.2918 H         1 <0>         0.0560
     48 H22        -0.1371   -2.1570   -3.1290 H         1 <0>         0.0807
     49 H23        -2.0951   -9.4611   -1.3835 H         1 <0>         0.4458
@<TRIPOS>BOND
     1    1    2 1
     2    1   29 1
     3    1   30 1
     4    1   31 1
     5    2    7 ar
     6    2    3 ar
     7    3    4 ar
     8    3   32 1
     9    4    5 ar
    10    4   28 1
    11    5    6 ar
    12    5   12 1
    13    6    7 ar
    14    6    8 1
    15    7   33 1
    16    8    9 2
    17    8   10 1
    18   10   34 1
    19   10   11 2
    20   11   13 1
    21   11   12 1
    22   12   35 1
    23   13   14 1
    24   13   36 1
    25   13   37 1
    26   14   15 1
    27   15   16 1
    28   15   21 1
    29   15   17 1
    30   17   18 1
    31   17   38 1
    32   18   19 1
    33   18   39 1
    34   19   20 1
    35   19   21 1
    36   19   23 1
    37   21   22 1
    38   21   49 1
    39   22   40 1
    40   22   41 1
    41   22   42 1
    42   23   27 1
    43   23   24 2
    44   24   25 1
    45   24   43 1
    46   25   26 2
    47   25   44 1
    48   26   27 1
    49   26   45 1
    50   28   46 1
    51   28   47 1
    52   28   48 1
@<TRIPOS>MOLECULE
ZINC67401490
   55    58     0     0     0
SMALL
USER_CHARGES

@<TRIPOS>ATOM
      1 C1         -0.0974    1.5107    0.0117 C.3       1 <0>        -0.1836
      2 C2         -0.0546   -0.0187    0.0046 C.3       1 <0>         0.0046
      3 H1         -1.0669   -0.4109    0.1012 H         1 <0>         0.1651
      4 C3          0.7841   -0.5030    1.1592 C.2       1 <0>         0.5099
      5 O1          1.7741   -1.1718    0.9510 O.2       1 <0>        -0.5216
      6 N1          0.4339   -0.1929    2.4232 N.am      1 <0>        -0.6725
      7 C4          1.2492   -0.6638    3.5456 C.3       1 <0>         0.0606
      8 C5          0.5155   -1.2270    4.7644 C.3       1 <0>        -0.1825
      9 C6          1.1945    0.1417    4.8453 C.3       1 <0>        -0.1785
     10 N2          0.5334   -0.4862   -1.2577 N.4       1 <0>        -0.3678
     11 C7         -0.2164    0.0800   -2.3894 C.3       1 <0>        -0.0092
     12 C8          0.5814   -0.1608   -3.6717 C.3       1 <0>        -0.1022
     13 C9          0.9691   -1.6143   -3.7657 C.ar      1 <0>        -0.1249
     14 C10         0.9166   -2.4449   -2.6675 C.ar      1 <0>        -0.1052
     15 C11         1.2861   -3.7761   -2.7930 C.ar      1 <0>        -0.1054
     16 C12         1.7029   -4.2760   -4.0112 C.ar      1 <0>        -0.0821
     17 C13         1.7546   -3.4484   -5.1154 C.ar      1 <0>        -0.0980
     18 C14         1.3880   -2.1157   -4.9948 C.ar      1 <0>         0.1831
     19 N3          1.4398   -1.2737   -6.1112 N.am      1 <0>        -0.6843
     20 C15         1.1525   -1.7590   -7.3353 C.2       1 <0>         0.7048
     21 O2          0.9216   -2.9439   -7.4806 O.2       1 <0>        -0.5455
     22 N4          1.1212   -0.9310   -8.3982 N.am      1 <0>        -0.6756
     23 C16         0.7042   -1.4096   -9.6466 C.ar      1 <0>         0.1412
     24 C17        -0.2915   -2.3742   -9.7241 C.ar      1 <0>        -0.0882
     25 C18        -0.7014   -2.8448  -10.9562 C.ar      1 <0>        -0.1328
     26 C19        -0.1200   -2.3554  -12.1137 C.ar      1 <0>         0.0931
     27 C20         0.8732   -1.3935  -12.0386 C.ar      1 <0>        -0.1317
     28 C21         1.2818   -0.9160  -10.8087 C.ar      1 <0>        -0.1108
     29 F1         -0.5220   -2.8175  -13.3179 F         1 <0>        -0.1344
     30 C22         0.4606   -1.9487   -1.3207 C.3       1 <0>         0.0378
     31 H2          0.9190    1.9029   -0.0246 H         1 <0>         0.0916
     32 H3         -0.6538    1.8626   -0.8571 H         1 <0>         0.1010
     33 H4         -0.5879    1.8563    0.9217 H         1 <0>         0.1120
     34 H5         -0.3579    0.3420    2.5898 H         1 <0>         0.4106
     35 H6          2.2017   -1.1200    3.2760 H         1 <0>         0.1461
     36 H7         -0.5738   -1.2472    4.7311 H         1 <0>         0.1023
     37 H8          0.9852   -2.0541    5.2967 H         1 <0>         0.1117
     38 H9          2.1109    0.2150    5.4309 H         1 <0>         0.1131
     39 H10         0.5520    1.0219    4.8652 H         1 <0>         0.1030
     40 H11        -1.1879   -0.4084   -2.4657 H         1 <0>         0.1370
     41 H12        -0.3529    1.1508   -2.2389 H         1 <0>         0.1439
     42 H13        -0.0287    0.1081   -4.5340 H         1 <0>         0.1206
     43 H14         1.4812    0.4543   -3.6596 H         1 <0>         0.1019
     44 H15         1.2477   -4.4265   -1.9317 H         1 <0>         0.1360
     45 H16         1.9881   -5.3139   -4.1002 H         1 <0>         0.1416
     46 H17         2.0788   -3.8371   -6.0695 H         1 <0>         0.1540
     47 H18         1.6824   -0.3406   -6.0041 H         1 <0>         0.4093
     48 H19         1.3876   -0.0036   -8.2986 H         1 <0>         0.4108
     49 H20        -0.7450   -2.7564   -8.8215 H         1 <0>         0.1422
     50 H21        -1.4756   -3.5954  -11.0168 H         1 <0>         0.1422
     51 H22         1.3256   -1.0133  -12.9426 H         1 <0>         0.1443
     52 H23         2.0534   -0.1625  -10.7507 H         1 <0>         0.1378
     53 H24         1.0989   -2.3739   -0.5462 H         1 <0>         0.1571
     54 H25        -0.5687   -2.2648   -1.1507 H         1 <0>         0.1349
     55 H26         1.4977   -0.1937   -1.3098 H         1 <0>         0.4310
@<TRIPOS>BOND
     1    1    2 1
     2    1   31 1
     3    1   32 1
     4    1   33 1
     5    2    3 1
     6    2    4 1
     7    2   10 1
     8    4    5 2
     9    4    6 am
    10    6    7 1
    11    6   34 1
    12    7    9 1
    13    7    8 1
    14    7   35 1
    15    8    9 1
    16    8   36 1
    17    8   37 1
    18    9   38 1
    19    9   39 1
    20   10   30 1
    21   10   11 1
    22   10   55 1
    23   11   12 1
    24   11   40 1
    25   11   41 1
    26   12   13 1
    27   12   42 1
    28   12   43 1
    29   13   18 ar
    30   13   14 ar
    31   14   15 ar
    32   14   30 1
    33   15   16 ar
    34   15   44 1
    35   16   17 ar
    36   16   45 1
    37   17   18 ar
    38   17   46 1
    39   18   19 1
    40   19   20 am
    41   19   47 1
    42   20   21 2
    43   20   22 am
    44   22   23 1
    45   22   48 1
    46   23   28 ar
    47   23   24 ar
    48   24   25 ar
    49   24   49 1
    50   25   26 ar
    51   25   50 1
    52   26   27 ar
    53   26   29 1
    54   27   28 ar
    55   27   51 1
    56   28   52 1
    57   30   53 1
    58   30   54 1
@<TRIPOS>MOLECULE
ZINC37916410
   51    54     0     0     0
SMALL
USER_CHARGES

@<TRIPOS>ATOM
      1 C1         -0.0187    1.5258    0.0104 C.3       1 <0>        -0.1247
      2 C2          0.0021   -0.0041    0.0020 C.3       1 <0>        -0.1321
      3 H1          0.0748   -0.4678   -0.9817 H         1 <0>         0.1249
      4 C3         -0.8275   -0.7277    1.0646 C.3       1 <0>        -0.1572
      5 C4          0.6996   -0.7075    1.1680 C.3       1 <0>        -0.1079
      6 H2          1.2309   -1.6343    0.9514 H         1 <0>         0.1480
      7 C5          1.3136    0.1594    2.2368 C.2       1 <0>         0.0986
      8 C6          2.6141    0.1833    2.5795 C.2       1 <0>        -0.2160
      9 C7          2.7466    1.1330    3.6185 C.2       1 <0>        -0.1255
     10 C8          1.5191    1.6326    3.8486 C.2       1 <0>        -0.1306
     11 O1          0.6560    1.0434    3.0049 O.3       1 <0>        -0.1651
     12 C9          1.1720    2.6798    4.8752 C.3       1 <0>         0.0951
     13 N1          1.2882    4.0142    4.2721 N.4       1 <0>        -0.3847
     14 C10         2.6878    4.2646    3.9075 C.3       1 <0>        -0.0207
     15 C11         2.8015    5.6194    3.2054 C.3       1 <0>        -0.1417
     16 C12         2.3139    6.7208    4.1512 C.3       1 <0>        -0.1504
     17 C13         0.8781    6.4099    4.5836 C.3       1 <0>        -0.1325
     18 H3          0.2245    6.4220    3.7114 H         1 <0>         0.1190
     19 C14         0.8357    5.0257    5.2346 C.3       1 <0>        -0.0014
     20 C15         0.4080    7.4630    5.5890 C.3       1 <0>         0.0335
     21 H4          1.0493    7.4465    6.4702 H         1 <0>         0.1529
     22 C16        -1.0535    7.1829    5.9980 C.3       1 <0>        -0.1469
     23 C17        -1.6663    8.6044    6.1006 C.3       1 <0>        -0.1439
     24 C18        -0.9355    9.3438    4.9522 C.3       1 <0>        -0.0100
     25 N2          0.4428    8.7999    4.9683 N.4       1 <0>        -0.5149
     26 H5          1.0039    1.9031    0.0027 H         1 <0>         0.0569
     27 H6         -0.5459    1.8868   -0.8726 H         1 <0>         0.0721
     28 H7         -0.5289    1.8773    0.9072 H         1 <0>         0.0514
     29 H8         -1.3881   -0.1139    1.7696 H         1 <0>         0.1007
     30 H9         -1.3003   -1.6677    0.7800 H         1 <0>         0.1137
     31 H10         3.4052   -0.4096    2.1447 H         1 <0>         0.1654
     32 H11         3.6583    1.4048    4.1296 H         1 <0>         0.1617
     33 H12         0.1499    2.5251    5.2209 H         1 <0>         0.1476
     34 H13         1.8569    2.6019    5.7196 H         1 <0>         0.1578
     35 H14         3.3020    4.2698    4.8080 H         1 <0>         0.1368
     36 H15         3.0344    3.4782    3.2370 H         1 <0>         0.1413
     37 H16         3.8417    5.8042    2.9372 H         1 <0>         0.1253
     38 H17         2.1879    5.6152    2.3046 H         1 <0>         0.0937
     39 H18         2.9588    6.7593    5.0291 H         1 <0>         0.1011
     40 H19         2.3396    7.6812    3.6362 H         1 <0>         0.0914
     41 H20        -0.1851    4.8013    5.5439 H         1 <0>         0.1429
     42 H21         1.4893    5.0148    6.1068 H         1 <0>         0.1440
     43 H22        -1.5627    6.5981    5.2319 H         1 <0>         0.1024
     44 H23        -1.0935    6.6755    6.9618 H         1 <0>         0.1209
     45 H24        -2.7420    8.5794    5.9266 H         1 <0>         0.1248
     46 H25        -1.4387    9.0590    7.0648 H         1 <0>         0.1058
     47 H26        -1.4172    9.1322    3.9975 H         1 <0>         0.1374
     48 H27        -0.9206   10.4173    5.1409 H         1 <0>         0.1453
     49 H28         1.0438    9.4077    5.5045 H         1 <0>         0.4395
     50 H29         0.7139    4.0590    3.4437 H         1 <0>         0.4261
     51 H30         0.7910    8.7269    4.0241 H         1 <0>         0.4280
@<TRIPOS>BOND
     1    1    2 1
     2    1   26 1
     3    1   27 1
     4    1   28 1
     5    2    3 1
     6    2    5 1
     7    2    4 1
     8    4    5 1
     9    4   29 1
    10    4   30 1
    11    5    6 1
    12    5    7 1
    13    7   11 1
    14    7    8 2
    15    8    9 1
    16    8   31 1
    17    9   10 2
    18    9   32 1
    19   10   11 1
    20   10   12 1
    21   12   13 1
    22   12   33 1
    23   12   34 1
    24   13   19 1
    25   13   14 1
    26   13   50 1
    27   14   15 1
    28   14   35 1
    29   14   36 1
    30   15   16 1
    31   15   37 1
    32   15   38 1
    33   16   17 1
    34   16   39 1
    35   16   40 1
    36   17   18 1
    37   17   19 1
    38   17   20 1
    39   19   41 1
    40   19   42 1
    41   20   21 1
    42   20   25 1
    43   20   22 1
    44   22   23 1
    45   22   43 1
    46   22   44 1
    47   23   24 1
    48   23   45 1
    49   23   46 1
    50   24   25 1
    51   24   47 1
    52   24   48 1
    53   25   49 1
    54   25   51 1
@<TRIPOS>MOLECULE
ZINC43965446
   54    55     0     0     0
SMALL
USER_CHARGES

@<TRIPOS>ATOM
      1 C1          0.8652   -0.5105   -1.1539 C.3       1 <0>        -0.1923
      2 C2          0.0882   -0.0068    0.0641 C.3       1 <0>         0.0634
      3 H1          0.5734   -0.3573    0.9750 H         1 <0>         0.1223
      4 C3          0.0630    1.5230    0.0559 C.3       1 <0>         0.0909
      5 H2         -0.3308    1.8748   -0.8976 H         1 <0>         0.1428
      6 C4          1.4621    2.0495    0.2466 C.ar      1 <0>        -0.1510
      7 C5          2.0172    2.0944    1.5117 C.ar      1 <0>        -0.1209
      8 C6          3.3006    2.5774    1.6866 C.ar      1 <0>        -0.1003
      9 C7          4.0290    3.0149    0.5963 C.ar      1 <0>        -0.0826
     10 C8          3.4742    2.9691   -0.6690 C.ar      1 <0>        -0.1024
     11 C9          2.1924    2.4821   -0.8445 C.ar      1 <0>        -0.0864
     12 N1         -0.7943    2.0044    1.1474 N.4       1 <0>        -0.5016
     13 C10        -0.9193    3.4657    1.0637 C.3       1 <0>        -0.0516
     14 N2         -1.2875   -0.5195    0.0136 N.3       1 <0>        -0.5549
     15 C11        -1.3219   -1.9632    0.2865 C.3       1 <0>         0.0274
     16 C12        -2.7742   -2.4454    0.2836 C.3       1 <0>        -0.0134
     17 N3         -3.3817   -2.1621   -1.0234 N.4       1 <0>        -0.3808
     18 C13        -3.3623   -0.7144   -1.2709 C.3       1 <0>        -0.0128
     19 C14        -1.9149   -0.2178   -1.2809 C.3       1 <0>         0.0062
     20 C15        -4.7703   -2.6414   -1.0319 C.3       1 <0>         0.0554
     21 C16        -5.5630   -1.9273    0.0647 C.3       1 <0>        -0.1767
     22 C17        -5.4034   -2.3465   -2.3932 C.3       1 <0>        -0.1791
     23 C18        -4.7908   -4.1497   -0.7760 C.3       1 <0>        -0.1798
     24 H3          1.8860   -0.1301   -1.1164 H         1 <0>         0.0910
     25 H4          0.8831   -1.6004   -1.1481 H         1 <0>         0.0796
     26 H5          0.3800   -0.1600   -2.0648 H         1 <0>         0.0732
     27 H6          1.4481    1.7526    2.3636 H         1 <0>         0.1195
     28 H7          3.7341    2.6132    2.6752 H         1 <0>         0.1392
     29 H8          5.0315    3.3928    0.7330 H         1 <0>         0.1403
     30 H9          4.0432    3.3112   -1.5209 H         1 <0>         0.1403
     31 H10         1.7603    2.4429   -1.8335 H         1 <0>         0.1318
     32 H11        -1.7080    1.5836    1.0680 H         1 <0>         0.4318
     33 H12        -1.5554    3.8229    1.8735 H         1 <0>         0.1314
     34 H13         0.0676    3.9203    1.1494 H         1 <0>         0.1275
     35 H14        -1.3629    3.7382    0.1060 H         1 <0>         0.1239
     36 H15        -0.7615   -2.4925   -0.4841 H         1 <0>         0.0762
     37 H16        -0.8754   -2.1598    1.2612 H         1 <0>         0.1306
     38 H17        -2.8011   -3.5187    0.4717 H         1 <0>         0.1449
     39 H18        -3.3311   -1.9258    1.0633 H         1 <0>         0.1418
     40 H19        -3.8251   -0.5044   -2.2352 H         1 <0>         0.1440
     41 H20        -3.9162   -0.2037   -0.4832 H         1 <0>         0.1398
     42 H21        -1.9009    0.8589   -1.4497 H         1 <0>         0.1186
     43 H22        -1.3641   -0.7183   -2.0773 H         1 <0>         0.0828
     44 H23        -5.5485   -0.8527   -0.1176 H         1 <0>         0.0799
     45 H24        -6.5934   -2.2829    0.0584 H         1 <0>         0.1089
     46 H25        -5.1120   -2.1374    1.0345 H         1 <0>         0.0819
     47 H26        -4.8386   -2.8553   -3.1744 H         1 <0>         0.0832
     48 H27        -6.4337   -2.7021   -2.3995 H         1 <0>         0.1105
     49 H28        -5.3888   -1.2720   -2.5755 H         1 <0>         0.0810
     50 H29        -4.3398   -4.3599    0.1939 H         1 <0>         0.0825
     51 H30        -5.8211   -4.5054   -0.7822 H         1 <0>         0.1104
     52 H31        -4.2260   -4.6585   -1.5572 H         1 <0>         0.0833
     53 H32        -0.3837    1.7522    2.0338 H         1 <0>         0.4273
     54 H33        -2.8591   -2.6338   -1.7463 H         1 <0>         0.4215
@<TRIPOS>BOND
     1    1    2 1
     2    1   24 1
     3    1   25 1
     4    1   26 1
     5    2    3 1
     6    2    4 1
     7    2   14 1
     8    4    5 1
     9    4    6 1
    10    4   12 1
    11    6   11 ar
    12    6    7 ar
    13    7    8 ar
    14    7   27 1
    15    8    9 ar
    16    8   28 1
    17    9   10 ar
    18    9   29 1
    19   10   11 ar
    20   10   30 1
    21   11   31 1
    22   12   13 1
    23   12   32 1
    24   12   53 1
    25   13   33 1
    26   13   34 1
    27   13   35 1
    28   14   19 1
    29   14   15 1
    30   15   16 1
    31   15   36 1
    32   15   37 1
    33   16   17 1
    34   16   38 1
    35   16   39 1
    36   17   18 1
    37   17   20 1
    38   17   54 1
    39   18   19 1
    40   18   40 1
    41   18   41 1
    42   19   42 1
    43   19   43 1
    44   20   21 1
    45   20   22 1
    46   20   23 1
    47   21   44 1
    48   21   45 1
    49   21   46 1
    50   22   47 1
    51   22   48 1
    52   22   49 1
    53   23   50 1
    54   23   51 1
    55   23   52 1
@<TRIPOS>MOLECULE
ZINC51284232
   53    54     0     0     0
SMALL
USER_CHARGES

@<TRIPOS>ATOM
      1 C1         -0.9572    1.0135   -0.0718 C.3       1 <0>        -0.1588
      2 C2         -0.7118   -0.4964   -0.0435 C.3       1 <0>        -0.1525
      3 C3          0.1977   -0.8433    1.1369 C.3       1 <0>        -0.0145
      4 N1          0.4333   -2.2930    1.1641 N.4       1 <0>        -0.5101
      5 C4          1.3066   -2.6260    2.2974 C.3       1 <0>        -0.0341
      6 C5          1.5520   -4.1359    2.3257 C.3       1 <0>        -0.1034
      7 C6          0.2100   -4.8707    2.3312 C.3       1 <0>        -0.1247
      8 C7          0.4554   -6.3807    2.3595 C.3       1 <0>        -0.1278
      9 C8          1.2562   -6.7904    1.1218 C.3       1 <0>        -0.1318
     10 C9          2.5981   -6.0556    1.1163 C.3       1 <0>        -0.1291
     11 C10         2.3527   -4.5457    1.0880 C.3       1 <0>        -0.1427
     12 C11         2.3387   -4.5012    3.5861 C.3       1 <0>        -0.0025
     13 N2          3.6761   -3.8969    3.5209 N.4       1 <0>        -0.3933
     14 C12         3.6129   -2.4909    3.9133 C.3       1 <0>        -0.0353
     15 C13         4.4411   -1.6737    2.9190 C.3       1 <0>        -0.1548
     16 C14         5.7735   -2.3091    2.4944 C.3       1 <0>        -0.1316
     17 S1          6.6944   -3.0140    3.8758 S.3       1 <0>        -0.1796
     18 C15         5.9656   -4.6910    4.0685 C.3       1 <0>        -0.1273
     19 C16         4.5704   -4.5437    4.4863 C.3       1 <0>        -0.0220
     20 H1         -0.0059    1.5343   -0.1808 H         1 <0>         0.0685
     21 H2         -1.6051    1.2606   -0.9127 H         1 <0>         0.0835
     22 H3         -1.4355    1.3214    0.8581 H         1 <0>         0.0697
     23 H4         -1.6631   -1.0172    0.0655 H         1 <0>         0.0903
     24 H5         -0.2335   -0.8042   -0.9734 H         1 <0>         0.0887
     25 H6          1.1490   -0.3225    1.0279 H         1 <0>         0.1337
     26 H7         -0.2806   -0.5354    2.0668 H         1 <0>         0.1379
     27 H8         -0.4473   -2.7750    1.2650 H         1 <0>         0.4335
     28 H9          2.2579   -2.1052    2.1884 H         1 <0>         0.1353
     29 H10         0.8283   -2.3182    3.2273 H         1 <0>         0.1519
     30 H11        -0.3604   -4.5788    3.2130 H         1 <0>         0.0968
     31 H12        -0.3504   -4.6105    1.4333 H         1 <0>         0.0810
     32 H13         1.0159   -6.6409    3.2574 H         1 <0>         0.0730
     33 H14        -0.5006   -6.9042    2.3635 H         1 <0>         0.0925
     34 H15         1.4310   -7.8661    1.1420 H         1 <0>         0.0866
     35 H16         0.6957   -6.5302    0.2239 H         1 <0>         0.0755
     36 H17         3.1586   -6.3159    2.0142 H         1 <0>         0.0647
     37 H18         3.1686   -6.3476    0.2345 H         1 <0>         0.0923
     38 H19         1.7923   -4.2855    0.1901 H         1 <0>         0.0939
     39 H20         3.3088   -4.0222    1.0841 H         1 <0>         0.0685
     40 H21         1.8129   -4.1261    4.4641 H         1 <0>         0.1509
     41 H22         2.4326   -5.5850    3.6544 H         1 <0>         0.1576
     42 H23         2.5774   -2.1510    3.8951 H         1 <0>         0.1346
     43 H24         4.0214   -2.3712    4.9167 H         1 <0>         0.1579
     44 H25         3.8393   -1.5105    2.0249 H         1 <0>         0.0861
     45 H26         4.6521   -0.7023    3.3661 H         1 <0>         0.1277
     46 H27         5.5705   -3.0977    1.7699 H         1 <0>         0.0840
     47 H28         6.3885   -1.5469    2.0159 H         1 <0>         0.1425
     48 H29         6.0098   -5.2219    3.1175 H         1 <0>         0.1097
     49 H30         6.5187   -5.2468    4.8257 H         1 <0>         0.1682
     50 H31         4.5511   -3.9640    5.4092 H         1 <0>         0.1497
     51 H32         4.1744   -5.5353    4.7054 H         1 <0>         0.1415
     52 H33         0.8761   -2.5779    0.3033 H         1 <0>         0.4291
     53 H34         4.0508   -3.9829    2.5880 H         1 <0>         0.4184
@<TRIPOS>BOND
     1    1    2 1
     2    1   20 1
     3    1   21 1
     4    1   22 1
     5    2    3 1
     6    2   23 1
     7    2   24 1
     8    3    4 1
     9    3   25 1
    10    3   26 1
    11    4    5 1
    12    4   27 1
    13    4   52 1
    14    5    6 1
    15    5   28 1
    16    5   29 1
    17    6   11 1
    18    6    7 1
    19    6   12 1
    20    7    8 1
    21    7   30 1
    22    7   31 1
    23    8    9 1
    24    8   32 1
    25    8   33 1
    26    9   10 1
    27    9   34 1
    28    9   35 1
    29   10   11 1
    30   10   36 1
    31   10   37 1
    32   11   38 1
    33   11   39 1
    34   12   13 1
    35   12   40 1
    36   12   41 1
    37   13   19 1
    38   13   14 1
    39   13   53 1
    40   14   15 1
    41   14   42 1
    42   14   43 1
    43   15   16 1
    44   15   44 1
    45   15   45 1
    46   16   17 1
    47   16   46 1
    48   16   47 1
    49   17   18 1
    50   18   19 1
    51   18   48 1
    52   18   49 1
    53   19   50 1
    54   19   51 1
@<TRIPOS>MOLECULE
ZINC54130246
   50    51     0     0     0
SMALL
USER_CHARGES

@<TRIPOS>ATOM
      1 C1         -0.0187    1.5258    0.0104 C.3       1 <0>        -0.1547
      2 C2          0.0021   -0.0041    0.0020 C.3       1 <0>        -0.0908
      3 H1          0.5123   -0.3555   -0.8948 H         1 <0>         0.0612
      4 C3         -1.4333   -0.5335    0.0127 C.3       1 <0>        -0.1295
      5 C4         -1.4120   -2.0634    0.0022 C.3       1 <0>        -0.1268
      6 C5         -0.6732   -2.5721    1.2413 C.3       1 <0>        -0.1239
      7 C6          0.7643   -2.0425    1.2309 C.3       1 <0>         0.1344
      8 C7          0.7421   -0.5107    1.2413 C.3       1 <0>        -0.1273
      9 C8          1.4682   -2.5257    2.5300 C.3       1 <0>        -0.0964
     10 S1          3.1553   -2.7969    1.8378 S.3       1 <0>         0.0323
     11 C9          2.6958   -2.9406    0.1187 C.cat     1 <0>         0.4832
     12 N1          1.4645   -2.5232    0.0519 N.pl3     1 <0>        -0.6092
     13 N2          3.4781   -3.3958   -0.9173 N.pl3     1 <0>        -0.6475
     14 C10         4.8537   -3.8296   -0.6605 C.3       1 <0>         0.0784
     15 C11         5.4979   -4.2851   -1.9714 C.3       1 <0>        -0.0294
     16 N3          6.8772   -4.7201   -1.7140 N.4       1 <0>        -0.3803
     17 C12         7.6771   -3.5723   -1.2662 C.3       1 <0>        -0.0639
     18 C13         7.4559   -5.2688   -2.9477 C.3       1 <0>         0.0239
     19 C14         8.8925   -5.7219   -2.6795 C.3       1 <0>        -0.1870
     20 C15         6.6228   -6.4643   -3.4141 C.3       1 <0>        -0.1880
     21 H2          1.0039    1.9031    0.0027 H         1 <0>         0.0589
     22 H3         -0.5459    1.8868   -0.8726 H         1 <0>         0.0674
     23 H4         -0.5289    1.8773    0.9072 H         1 <0>         0.0669
     24 H5         -1.9432   -0.1833    0.9102 H         1 <0>         0.0811
     25 H6         -1.9608   -0.1714   -0.8698 H         1 <0>         0.0806
     26 H7         -2.4345   -2.4409    0.0083 H         1 <0>         0.0924
     27 H8         -0.9010   -2.4134   -0.8947 H         1 <0>         0.0543
     28 H9         -1.1834   -2.2211    2.1383 H         1 <0>         0.1159
     29 H10        -0.6590   -3.6620    1.2341 H         1 <0>         0.0876
     30 H11         1.7644   -0.1325    1.2341 H         1 <0>         0.0848
     31 H12         0.2312   -0.1606    2.1382 H         1 <0>         0.1136
     32 H13         1.4691   -1.7517    3.2975 H         1 <0>         0.1689
     33 H14         1.0328   -3.4535    2.9009 H         1 <0>         0.1469
     34 H15         3.1190   -3.4295   -1.8177 H         1 <0>         0.4348
     35 H16         5.4247   -2.9997   -0.2443 H         1 <0>         0.1174
     36 H17         4.8472   -4.6578    0.0481 H         1 <0>         0.1200
     37 H18         4.9269   -5.1150   -2.3877 H         1 <0>         0.1501
     38 H19         5.5044   -3.4569   -2.6801 H         1 <0>         0.1473
     39 H20         7.6766   -2.8049   -2.0403 H         1 <0>         0.1297
     40 H21         7.2477   -3.1652   -0.3508 H         1 <0>         0.1241
     41 H22         8.7005   -3.8951   -1.0751 H         1 <0>         0.1389
     42 H23         7.4554   -4.5015   -3.7218 H         1 <0>         0.1419
     43 H24         8.8929   -6.4892   -1.9054 H         1 <0>         0.0849
     44 H25         9.3219   -6.1290   -3.5949 H         1 <0>         0.1126
     45 H26         9.4860   -4.8702   -2.3472 H         1 <0>         0.0860
     46 H27         6.6232   -7.2317   -2.6399 H         1 <0>         0.0852
     47 H28         5.5993   -6.1415   -3.6051 H         1 <0>         0.0781
     48 H29         7.0522   -6.8714   -4.3295 H         1 <0>         0.1136
     49 H30         1.0050   -2.5335   -0.8023 H         1 <0>         0.4291
     50 H31         6.8776   -5.4304   -0.9974 H         1 <0>         0.4281
@<TRIPOS>BOND
     1    1    2 1
     2    1   21 1
     3    1   22 1
     4    1   23 1
     5    2    3 1
     6    2    8 1
     7    2    4 1
     8    4    5 1
     9    4   24 1
    10    4   25 1
    11    5    6 1
    12    5   26 1
    13    5   27 1
    14    6    7 1
    15    6   28 1
    16    6   29 1
    17    7   12 1
    18    7    8 1
    19    7    9 1
    20    8   30 1
    21    8   31 1
    22    9   10 1
    23    9   32 1
    24    9   33 1
    25   10   11 1
    26   11   12 2
    27   11   13 1
    28   12   49 1
    29   13   14 1
    30   13   34 1
    31   14   15 1
    32   14   35 1
    33   14   36 1
    34   15   16 1
    35   15   37 1
    36   15   38 1
    37   16   17 1
    38   16   18 1
    39   16   50 1
    40   17   39 1
    41   17   40 1
    42   17   41 1
    43   18   19 1
    44   18   20 1
    45   18   42 1
    46   19   43 1
    47   19   44 1
    48   19   45 1
    49   20   46 1
    50   20   47 1
    51   20   48 1
@<TRIPOS>MOLECULE
ZINC63013456
   49    52     0     0     0
SMALL
USER_CHARGES

@<TRIPOS>ATOM
      1 C1          3.0701    0.7452    4.0454 C.ar      1 <0>        -0.1119
      2 C2          3.1455    1.7335    3.0811 C.ar      1 <0>        -0.0573
      3 C3          2.5313    1.5572    1.8557 C.ar      1 <0>        -0.1130
      4 C4          1.8349    0.3847    1.5996 C.ar      1 <0>         0.1108
      5 C5          1.7502   -0.5938    2.5704 C.ar      1 <0>        -0.2071
      6 C6          2.3724   -0.4224    3.7905 C.ar      1 <0>        -0.0823
      7 C7          0.9464   -1.8504    2.2977 C.3       1 <0>         0.0350
      8 N1          1.6396   -2.6420    1.2759 N.4       1 <0>        -0.3946
      9 C8          1.2897   -2.1926   -0.0674 C.3       1 <0>        -0.0507
     10 C9          1.8409   -0.8305   -0.4241 C.3       1 <0>         0.0436
     11 O1          1.2450    0.1892    0.3875 O.3       1 <0>        -0.3052
     12 C10         1.2638   -4.0544    1.4242 C.3       1 <0>        -0.0319
     13 C11         1.8086   -4.5906    2.7495 C.3       1 <0>        -0.0018
     14 H1          1.3318   -4.0742    3.5827 H         1 <0>         0.1654
     15 C12         1.5439   -6.1092    2.8512 C.3       1 <0>        -0.1321
     16 C13         2.8358   -6.6374    3.5465 C.3       1 <0>        -0.0917
     17 H2          3.0172   -7.6945    3.3519 H         1 <0>         0.1469
     18 C14         2.6826   -6.3371    5.0390 C.3       1 <0>        -0.1304
     19 C15         4.0313   -6.4282    5.7488 C.3       1 <0>        -0.1344
     20 C16         4.9699   -5.3717    5.1561 C.3       1 <0>        -0.1314
     21 C17         5.1977   -5.7009    3.6808 C.3       1 <0>        -0.1437
     22 C18         3.8967   -5.7268    2.9013 C.3       1 <0>         0.0343
     23 H3          4.0877   -6.0821    1.8887 H         1 <0>         0.1445
     24 N2          3.2727   -4.3954    2.8078 N.4       1 <0>        -0.5248
     25 H4          3.5605    0.8829    4.9977 H         1 <0>         0.1467
     26 H5          3.6856    2.6460    3.2864 H         1 <0>         0.1507
     27 H6          2.5933    2.3276    1.1014 H         1 <0>         0.1519
     28 H7          2.3153   -1.1957    4.5423 H         1 <0>         0.1350
     29 H8          0.8581   -2.4338    3.2143 H         1 <0>         0.1379
     30 H9         -0.0461   -1.5785    1.9383 H         1 <0>         0.1574
     31 H10         1.6681   -2.9194   -0.7862 H         1 <0>         0.1517
     32 H11         0.2033   -2.1602   -0.1506 H         1 <0>         0.1522
     33 H12         2.9197   -0.8282   -0.2680 H         1 <0>         0.0852
     34 H13         1.6308   -0.6222   -1.4732 H         1 <0>         0.1572
     35 H14         0.1776   -4.1443    1.4148 H         1 <0>         0.1826
     36 H15         1.6832   -4.6304    0.5993 H         1 <0>         0.1624
     37 H16         0.6656   -6.3080    3.4654 H         1 <0>         0.1328
     38 H17         1.4311   -6.5488    1.8602 H         1 <0>         0.1151
     39 H18         2.2784   -5.3325    5.1635 H         1 <0>         0.0584
     40 H19         1.9946   -7.0576    5.4815 H         1 <0>         0.0965
     41 H20         3.8972   -6.2417    6.8143 H         1 <0>         0.0862
     42 H21         4.4569   -7.4205    5.5995 H         1 <0>         0.0841
     43 H22         4.5153   -4.3851    5.2460 H         1 <0>         0.0564
     44 H23         5.9219   -5.3874    5.6868 H         1 <0>         0.0983
     45 H24         5.8595   -4.9519    3.2458 H         1 <0>         0.0913
     46 H25         5.6685   -6.6808    3.6021 H         1 <0>         0.1228
     47 H26         3.5884   -3.9270    1.9717 H         1 <0>         0.4132
     48 H27         2.6359   -2.5504    1.4062 H         1 <0>         0.4011
     49 H28         3.5120   -3.8456    3.6193 H         1 <0>         0.4366
@<TRIPOS>BOND
     1    1    6 ar
     2    1    2 ar
     3    1   25 1
     4    2    3 ar
     5    2   26 1
     6    3    4 ar
     7    3   27 1
     8    4   11 1
     9    4    5 ar
    10    5    6 ar
    11    5    7 1
    12    6   28 1
    13    7    8 1
    14    7   29 1
    15    7   30 1
    16    8    9 1
    17    8   12 1
    18    8   48 1
    19    9   10 1
    20    9   31 1
    21    9   32 1
    22   10   11 1
    23   10   33 1
    24   10   34 1
    25   12   13 1
    26   12   35 1
    27   12   36 1
    28   13   14 1
    29   13   24 1
    30   13   15 1
    31   15   16 1
    32   15   37 1
    33   15   38 1
    34   16   17 1
    35   16   22 1
    36   16   18 1
    37   18   19 1
    38   18   39 1
    39   18   40 1
    40   19   20 1
    41   19   41 1
    42   19   42 1
    43   20   21 1
    44   20   43 1
    45   20   44 1
    46   21   22 1
    47   21   45 1
    48   21   46 1
    49   22   23 1
    50   22   24 1
    51   24   47 1
    52   24   49 1
@<TRIPOS>MOLECULE
ZINC37374203
   46    48     0     0     0
SMALL
USER_CHARGES

@<TRIPOS>ATOM
      1 C1         -0.0855    1.4912    0.0464 C.3       1 <0>        -0.1354
      2 C2         -0.0540   -0.0154    0.0304 C.ar      1 <0>        -0.0350
      3 C3         -0.0359   -0.6936   -1.1741 C.ar      1 <0>        -0.1176
      4 C4         -0.0070   -2.0755   -1.1888 C.ar      1 <0>        -0.0855
      5 C5          0.0043   -2.7793    0.0009 C.ar      1 <0>        -0.1841
      6 C6         -0.0130   -2.1012    1.2054 C.ar      1 <0>        -0.0870
      7 C7         -0.0375   -0.7191    1.2201 C.ar      1 <0>        -0.1186
      8 C8          0.0347   -4.2859   -0.0151 C.3       1 <0>         0.0465
      9 N1          1.4293   -4.7475   -0.0168 N.4       1 <0>        -0.5071
     10 C9          1.4591   -6.2161   -0.0325 C.3       1 <0>         0.0233
     11 C10         0.8551   -6.7522    1.2675 C.3       1 <0>        -0.1629
     12 C11         0.8561   -8.2837    1.2329 C.3       1 <0>         0.1068
     13 N2          2.2236   -8.7498    0.9656 N.pl3     1 <0>        -0.5891
     14 C12         2.9311   -8.2263   -0.2109 C.3       1 <0>         0.1071
     15 C13         2.9069   -6.6954   -0.1600 C.3       1 <0>        -0.1612
     16 C14         2.8372   -9.6693    1.8110 C.ar      1 <0>         0.3149
     17 C15         4.0898  -10.1998    1.5028 C.ar      1 <0>        -0.2115
     18 C16         4.6639  -11.1080    2.3671 C.ar      1 <0>         0.1761
     19 N3          4.0435  -11.4754    3.4727 N.ar      1 <0>        -0.4879
     20 C17         2.8576  -10.9967    3.7993 C.ar      1 <0>         0.1759
     21 C18         2.2183  -10.0799    2.9916 C.ar      1 <0>        -0.2124
     22 H1          0.9344    1.8759    0.0488 H         1 <0>         0.0853
     23 H2         -0.6083    1.8531   -0.8389 H         1 <0>         0.0791
     24 H3         -0.6053    1.8342    0.9410 H         1 <0>         0.0787
     25 H4         -0.0446   -0.1437   -2.1036 H         1 <0>         0.1381
     26 H5          0.0065   -2.6054   -2.1298 H         1 <0>         0.1315
     27 H6         -0.0045   -2.6510    2.1349 H         1 <0>         0.1292
     28 H7         -0.0472   -0.1892    2.1611 H         1 <0>         0.1372
     29 H8         -0.4737   -4.6691    0.8696 H         1 <0>         0.1367
     30 H9         -0.4696   -4.6500   -0.9102 H         1 <0>         0.1392
     31 H10         1.9000   -4.3928   -0.8359 H         1 <0>         0.4321
     32 H11         0.8794   -6.5820   -0.8799 H         1 <0>         0.1471
     33 H12         1.4489   -6.4070    2.1140 H         1 <0>         0.0982
     34 H13        -0.1684   -6.3912    1.3692 H         1 <0>         0.1138
     35 H14         0.5194   -8.6712    2.1944 H         1 <0>         0.1133
     36 H15         0.1905   -8.6318    0.4430 H         1 <0>         0.1023
     37 H16         3.9635   -8.5759   -0.2019 H         1 <0>         0.1135
     38 H17         2.4347   -8.5697   -1.1185 H         1 <0>         0.1019
     39 H18         3.3437   -6.2941   -1.0745 H         1 <0>         0.1145
     40 H19         3.4813   -6.3508    0.6998 H         1 <0>         0.0976
     41 H20         4.6027   -9.9037    0.5996 H         1 <0>         0.1789
     42 H21         5.6333  -11.5242    2.1363 H         1 <0>         0.2093
     43 H22         2.3838  -11.3237    4.7131 H         1 <0>         0.2091
     44 H23         1.2502   -9.6884    3.2672 H         1 <0>         0.1784
     45 H24         1.8962   -4.4105    0.8117 H         1 <0>         0.4267
     46 H25         4.4713  -12.1160    4.0622 H         1 <0>         0.4529
@<TRIPOS>BOND
     1    1    2 1
     2    1   22 1
     3    1   23 1
     4    1   24 1
     5    2    7 ar
     6    2    3 ar
     7    3    4 ar
     8    3   25 1
     9    4    5 ar
    10    4   26 1
    11    5    6 ar
    12    5    8 1
    13    6    7 ar
    14    6   27 1
    15    7   28 1
    16    8    9 1
    17    8   29 1
    18    8   30 1
    19    9   10 1
    20    9   31 1
    21    9   45 1
    22   10   15 1
    23   10   11 1
    24   10   32 1
    25   11   12 1
    26   11   33 1
    27   11   34 1
    28   12   13 1
    29   12   35 1
    30   12   36 1
    31   13   14 1
    32   13   16 1
    33   14   15 1
    34   14   37 1
    35   14   38 1
    36   15   39 1
    37   15   40 1
    38   16   21 ar
    39   16   17 ar
    40   17   18 ar
    41   17   41 1
    42   18   19 ar
    43   18   42 1
    44   19   20 ar
    45   19   46 1
    46   20   21 ar
    47   20   43 1
    48   21   44 1
@<TRIPOS>MOLECULE
ZINC43897077
   57    58     0     0     0
SMALL
USER_CHARGES

@<TRIPOS>ATOM
      1 C1         -0.0331    1.3826   -1.0818 C.3       1 <0>        -0.1877
      2 C2         -0.0313   -0.1349   -0.8861 C.3       1 <0>        -0.0202
      3 N1         -1.3725   -0.5781   -0.4825 N.4       1 <0>        -0.4992
      4 C3         -1.3708   -2.0350   -0.2946 C.3       1 <0>         0.0250
      5 H1         -1.0161   -2.5182   -1.2050 H         1 <0>         0.1510
      6 C4         -0.4458   -2.3979    0.8688 C.3       1 <0>        -0.1392
      7 C5         -0.7371   -3.8294    1.3243 C.3       1 <0>        -0.1360
      8 C6         -0.1313   -4.8160    0.3239 C.3       1 <0>        -0.1328
      9 C7         -1.0023   -4.8671   -0.9329 C.3       1 <0>        -0.1299
     10 C8         -2.4770   -4.9282   -0.5302 C.3       1 <0>        -0.1352
     11 C9         -3.1751   -3.6335   -0.9515 C.3       1 <0>        -0.1499
     12 C10        -2.7914   -2.5107    0.0148 C.3       1 <0>         0.0531
     13 H2         -2.8354   -2.8817    1.0388 H         1 <0>         0.1376
     14 N2         -3.7280   -1.3897   -0.1405 N.3       1 <0>        -0.5630
     15 C11        -4.0421   -1.1583   -1.5575 C.3       1 <0>        -0.0027
     16 C12        -4.9708    0.0518   -1.6799 C.3       1 <0>        -0.0117
     17 N3         -6.2038   -0.1984   -0.9218 N.4       1 <0>        -0.3851
     18 C13        -5.8763   -0.4032    0.4953 C.3       1 <0>        -0.0103
     19 C14        -4.9551   -1.6171    0.6358 C.3       1 <0>         0.0288
     20 C15        -7.1026    0.9559   -1.0545 C.3       1 <0>         0.0249
     21 C16        -7.4454    1.1684   -2.5303 C.3       1 <0>        -0.1867
     22 C17        -8.3870    0.6956   -0.2649 C.3       1 <0>        -0.1870
     23 H3          0.9620    1.7114   -1.3813 H         1 <0>         0.1117
     24 H4         -0.7521    1.6481   -1.8569 H         1 <0>         0.0763
     25 H5         -0.3105    1.8692   -0.1468 H         1 <0>         0.0817
     26 H6          0.2460   -0.6215   -1.8212 H         1 <0>         0.1306
     27 H7          0.6877   -0.4004   -0.1111 H         1 <0>         0.1358
     28 H8         -1.6292   -0.1276    0.3831 H         1 <0>         0.4286
     29 H9          0.5921   -2.3240    0.5444 H         1 <0>         0.0977
     30 H10        -0.6175   -1.7109    1.6974 H         1 <0>         0.0890
     31 H11        -0.2981   -3.9940    2.3083 H         1 <0>         0.0884
     32 H12        -1.8152   -3.9815    1.3772 H         1 <0>         0.0860
     33 H13         0.8740   -4.4909    0.0563 H         1 <0>         0.0736
     34 H14        -0.0848   -5.8075    0.7742 H         1 <0>         0.0796
     35 H15        -0.8264   -3.9744   -1.5332 H         1 <0>         0.0569
     36 H16        -0.7479   -5.7525   -1.5155 H         1 <0>         0.0783
     37 H17        -2.9535   -5.7751   -1.0238 H         1 <0>         0.0799
     38 H18        -2.5538   -5.0473    0.5505 H         1 <0>         0.0844
     39 H19        -2.8651   -3.3655   -1.9615 H         1 <0>         0.0786
     40 H20        -4.2551   -3.7790   -0.9291 H         1 <0>         0.0798
     41 H21        -3.1208   -0.9668   -2.1077 H         1 <0>         0.1113
     42 H22        -4.5357   -2.0386   -1.9691 H         1 <0>         0.0935
     43 H23        -4.4717    0.9347   -1.2807 H         1 <0>         0.1370
     44 H24        -5.2165    0.2165   -2.7290 H         1 <0>         0.1479
     45 H25        -5.3725    0.4820    0.8834 H         1 <0>         0.1402
     46 H26        -6.7932   -0.5758    1.0589 H         1 <0>         0.1476
     47 H27        -5.4637   -2.5050    0.2604 H         1 <0>         0.0780
     48 H28        -4.6999   -1.7603    1.6858 H         1 <0>         0.1343
     49 H29        -6.6102    1.8465   -0.6639 H         1 <0>         0.1393
     50 H30        -7.9378    0.2778   -2.9209 H         1 <0>         0.0836
     51 H31        -8.1123    2.0250   -2.6288 H         1 <0>         0.1120
     52 H32        -6.5304    1.3539   -3.0928 H         1 <0>         0.0803
     53 H33        -9.0539    1.5522   -0.3633 H         1 <0>         0.1118
     54 H34        -8.8794   -0.1950   -0.6554 H         1 <0>         0.0835
     55 H35        -8.1428    0.5442    0.7865 H         1 <0>         0.0828
     56 H36        -2.0380   -0.3323   -1.1999 H         1 <0>         0.4133
     57 H37        -6.6597   -1.0225   -1.2840 H         1 <0>         0.4229
@<TRIPOS>BOND
     1    1    2 1
     2    1   23 1
     3    1   24 1
     4    1   25 1
     5    2    3 1
     6    2   26 1
     7    2   27 1
     8    3    4 1
     9    3   28 1
    10    3   56 1
    11    4    5 1
    12    4   12 1
    13    4    6 1
    14    6    7 1
    15    6   29 1
    16    6   30 1
    17    7    8 1
    18    7   31 1
    19    7   32 1
    20    8    9 1
    21    8   33 1
    22    8   34 1
    23    9   10 1
    24    9   35 1
    25    9   36 1
    26   10   11 1
    27   10   37 1
    28   10   38 1
    29   11   12 1
    30   11   39 1
    31   11   40 1
    32   12   13 1
    33   12   14 1
    34   14   19 1
    35   14   15 1
    36   15   16 1
    37   15   41 1
    38   15   42 1
    39   16   17 1
    40   16   43 1
    41   16   44 1
    42   17   18 1
    43   17   20 1
    44   17   57 1
    45   18   19 1
    46   18   45 1
    47   18   46 1
    48   19   47 1
    49   19   48 1
    50   20   21 1
    51   20   22 1
    52   20   49 1
    53   21   50 1
    54   21   51 1
    55   21   52 1
    56   22   53 1
    57   22   54 1
    58   22   55 1
@<TRIPOS>MOLECULE
ZINC51489199
   49    51     0     0     0
SMALL
USER_CHARGES

@<TRIPOS>ATOM
      1 C1         -0.0793    1.5025    0.2141 C.3       1 <0>        -0.1521
      2 C2         -0.0185    0.0017    0.0921 C.ar      1 <0>         0.0751
      3 C3         -0.1703   -0.6171   -1.1420 C.ar      1 <0>        -0.1372
      4 C4         -0.1090   -1.9937   -1.2202 C.ar      1 <0>         0.2158
      5 N1          0.0913   -2.7248   -0.1399 N.ar      1 <0>        -0.4733
      6 C5          0.2401   -2.1726    1.0542 C.ar      1 <0>         0.4814
      7 C6          0.1953   -0.7901    1.2056 C.ar      1 <0>        -0.1898
      8 C7          0.3714   -0.1646    2.5652 C.3       1 <0>         0.0440
      9 N2         -0.9466    0.0812    3.1656 N.4       1 <0>        -0.5111
     10 C8         -0.7801    0.8067    4.4321 C.3       1 <0>         0.0220
     11 C9         -2.1551    1.1720    4.9951 C.3       1 <0>        -0.1869
     12 C10        -0.0379   -0.0799    5.4340 C.3       1 <0>        -0.1888
     13 N3          0.4487   -2.9808    2.1657 N.pl3     1 <0>        -0.7033
     14 C11        -0.5911   -3.5974    3.0159 C.3       1 <0>         0.1271
     15 C12         0.1900   -4.3733    4.1218 C.3       1 <0>        -0.1033
     16 H1         -0.3600   -4.6020    5.0346 H         1 <0>         0.1323
     17 C13         0.8093   -5.5883    3.3628 C.3       1 <0>        -0.1283
     18 C14         1.8484   -4.9497    2.4117 C.3       1 <0>        -0.1402
     19 C15         1.7651   -3.3993    2.7280 C.3       1 <0>         0.1365
     20 H2          2.6222   -2.7997    2.4216 H         1 <0>         0.1253
     21 C16         1.4383   -3.4298    4.2660 C.3       1 <0>        -0.1346
     22 C17        -0.2734   -2.6708   -2.5564 C.3       1 <0>        -0.1571
     23 H3          0.9203    1.9181    0.0870 H         1 <0>         0.1262
     24 H4         -0.7398    1.9031   -0.5549 H         1 <0>         0.1162
     25 H5         -0.4623    1.7718    1.1984 H         1 <0>         0.0778
     26 H6         -0.3349   -0.0270   -2.0315 H         1 <0>         0.1978
     27 H7          0.9418   -0.8387    3.2042 H         1 <0>         0.1568
     28 H8          0.9064    0.7797    2.4642 H         1 <0>         0.1608
     29 H9         -1.5067    0.6328    2.5331 H         1 <0>         0.4265
     30 H10        -0.2059    1.7165    4.2569 H         1 <0>         0.1473
     31 H11        -2.7293    0.2622    5.1703 H         1 <0>         0.0834
     32 H12        -2.0316    1.7103    5.9348 H         1 <0>         0.1161
     33 H13        -2.6839    1.8036    4.2812 H         1 <0>         0.0847
     34 H14        -0.6121   -0.9896    5.6092 H         1 <0>         0.0842
     35 H15         0.9417   -0.3401    5.0329 H         1 <0>         0.0803
     36 H16         0.0856    0.4585    6.3737 H         1 <0>         0.1163
     37 H17        -1.2175   -2.8270    3.4655 H         1 <0>         0.0561
     38 H18        -1.1996   -4.2857    2.4294 H         1 <0>         0.0780
     39 H19         1.2981   -6.2664    4.0623 H         1 <0>         0.0859
     40 H20         0.0426   -6.1135    2.7931 H         1 <0>         0.0752
     41 H21         2.8473   -5.3267    2.6312 H         1 <0>         0.0913
     42 H22         1.5856   -5.1480    1.3726 H         1 <0>         0.0657
     43 H23         1.1692   -2.4469    4.6528 H         1 <0>         0.0780
     44 H24         2.2376   -3.8902    4.8467 H         1 <0>         0.1076
     45 H25         0.7018   -2.7803   -3.0307 H         1 <0>         0.1290
     46 H26        -0.7200   -3.6547   -2.4127 H         1 <0>         0.1054
     47 H27        -0.9210   -2.0672   -3.1923 H         1 <0>         0.1283
     48 H28         0.1301   -3.6904   -0.2226 H         1 <0>         0.4485
     49 H29        -1.4060   -0.7999    3.3406 H         1 <0>         0.4232
@<TRIPOS>BOND
     1    1    2 1
     2    1   23 1
     3    1   24 1
     4    1   25 1
     5    2    7 ar
     6    2    3 ar
     7    3    4 ar
     8    3   26 1
     9    4    5 ar
    10    4   22 1
    11    5    6 ar
    12    5   48 1
    13    6    7 ar
    14    6   13 1
    15    7    8 1
    16    8    9 1
    17    8   27 1
    18    8   28 1
    19    9   10 1
    20    9   29 1
    21    9   49 1
    22   10   11 1
    23   10   12 1
    24   10   30 1
    25   11   31 1
    26   11   32 1
    27   11   33 1
    28   12   34 1
    29   12   35 1
    30   12   36 1
    31   13   19 1
    32   13   14 1
    33   14   15 1
    34   14   37 1
    35   14   38 1
    36   15   16 1
    37   15   21 1
    38   15   17 1
    39   17   18 1
    40   17   39 1
    41   17   40 1
    42   18   19 1
    43   18   41 1
    44   18   42 1
    45   19   20 1
    46   19   21 1
    47   21   43 1
    48   21   44 1
    49   22   45 1
    50   22   46 1
    51   22   47 1
@<TRIPOS>MOLECULE
ZINC53877985
   57    58     0     0     0
SMALL
USER_CHARGES

@<TRIPOS>ATOM
      1 C1         -0.0187    1.5258    0.0104 C.3       1 <0>        -0.1546
      2 C2          0.0021   -0.0041    0.0020 C.3       1 <0>        -0.0969
      3 H1          0.5123   -0.3556   -0.8948 H         1 <0>         0.0749
      4 C3         -1.4333   -0.5336    0.0129 C.3       1 <0>        -0.1173
      5 C4         -1.4126   -2.0635    0.0045 C.3       1 <0>        -0.1395
      6 C5         -0.6726   -2.5703    1.2440 C.3       1 <0>         0.0267
      7 H2         -1.1828   -2.2188    2.1408 H         1 <0>         0.1442
      8 C6          0.7628   -2.0407    1.2331 C.3       1 <0>        -0.1052
      9 H3          1.2730   -2.3923    0.3363 H         1 <0>         0.0960
     10 C7          0.7421   -0.5109    1.2415 C.3       1 <0>        -0.0990
     11 C8          1.5028   -2.5476    2.4727 C.3       1 <0>         0.0450
     12 N1          2.9122   -2.1394    2.4026 N.3       1 <0>        -0.5297
     13 C9          3.6006   -2.8117    1.2916 C.3       1 <0>         0.0206
     14 C10         5.0463   -2.3157    1.2164 C.3       1 <0>        -0.0126
     15 N2          5.7295   -2.6037    2.4844 N.4       1 <0>        -0.3799
     16 C11         5.0452   -1.9057    3.5808 C.3       1 <0>        -0.0132
     17 C12         3.5995   -2.3983    3.6756 C.3       1 <0>         0.0288
     18 C13         7.1224   -2.1436    2.4053 C.3       1 <0>         0.0554
     19 C14         7.1476   -0.6365    2.1430 C.3       1 <0>        -0.1778
     20 C15         7.8343   -2.4435    3.7260 C.3       1 <0>        -0.1788
     21 C16         7.8360   -2.8718    1.2645 C.3       1 <0>        -0.1782
     22 N3         -0.6526   -4.0392    1.2359 N.4       1 <0>        -0.5115
     23 C17        -2.0244   -4.5482    1.3670 C.3       1 <0>        -0.0536
     24 H4          1.0039    1.9031    0.0027 H         1 <0>         0.0607
     25 H5         -0.5459    1.8868   -0.8726 H         1 <0>         0.0644
     26 H6         -0.5289    1.8773    0.9072 H         1 <0>         0.0604
     27 H7         -1.9435   -0.1821    0.9097 H         1 <0>         0.0774
     28 H8         -1.9605   -0.1726   -0.8702 H         1 <0>         0.0887
     29 H9         -2.4352   -2.4408    0.0122 H         1 <0>         0.0934
     30 H10        -0.9024   -2.4150   -0.8923 H         1 <0>         0.0877
     31 H11         1.7647   -0.1336    1.2338 H         1 <0>         0.0925
     32 H12         0.2319   -0.1594    2.1383 H         1 <0>         0.0759
     33 H13         1.0459   -2.1240    3.3671 H         1 <0>         0.1056
     34 H14         1.4411   -3.6351    2.5133 H         1 <0>         0.0357
     35 H15         3.5939   -3.8889    1.4581 H         1 <0>         0.0611
     36 H16         3.0892   -2.5848    0.3562 H         1 <0>         0.1226
     37 H17         5.5628   -2.8236    0.4019 H         1 <0>         0.1404
     38 H18         5.0527   -1.2407    1.0362 H         1 <0>         0.1430
     39 H19         5.5608   -2.1097    4.5192 H         1 <0>         0.1420
     40 H20         5.0516   -0.8328    3.3885 H         1 <0>         0.1433
     41 H21         3.0872   -1.8698    4.4796 H         1 <0>         0.1276
     42 H22         3.5928   -3.4687    3.8815 H         1 <0>         0.0631
     43 H23         6.6392   -0.1177    2.9558 H         1 <0>         0.0826
     44 H24         8.1811   -0.2951    2.0843 H         1 <0>         0.1080
     45 H25         6.6404   -0.4229    1.2022 H         1 <0>         0.0815
     46 H26         7.8163   -3.5172    3.9128 H         1 <0>         0.0817
     47 H27         8.8678   -2.1021    3.6673 H         1 <0>         0.1097
     48 H28         7.3259   -1.9247    4.5387 H         1 <0>         0.0825
     49 H29         7.3288   -2.6582    0.3236 H         1 <0>         0.0812
     50 H30         8.8695   -2.5305    1.2058 H         1 <0>         0.1097
     51 H31         7.8180   -3.9455    1.4513 H         1 <0>         0.0814
     52 H32        -0.2543   -4.3654    0.3681 H         1 <0>         0.4269
     53 H33        -2.4547   -4.1958    2.3044 H         1 <0>         0.1266
     54 H34        -2.6267   -4.1884    0.5328 H         1 <0>         0.1291
     55 H35        -2.0096   -5.6381    1.3610 H         1 <0>         0.1298
     56 H36        -0.0951   -4.3722    2.0081 H         1 <0>         0.4221
     57 H37         5.7133   -3.5977    2.6567 H         1 <0>         0.4178
@<TRIPOS>BOND
     1    1    2 1
     2    1   24 1
     3    1   25 1
     4    1   26 1
     5    2    3 1
     6    2   10 1
     7    2    4 1
     8    4    5 1
     9    4   27 1
    10    4   28 1
    11    5    6 1
    12    5   29 1
    13    5   30 1
    14    6    7 1
    15    6    8 1
    16    6   22 1
    17    8    9 1
    18    8   10 1
    19    8   11 1
    20   10   31 1
    21   10   32 1
    22   11   12 1
    23   11   33 1
    24   11   34 1
    25   12   17 1
    26   12   13 1
    27   13   14 1
    28   13   35 1
    29   13   36 1
    30   14   15 1
    31   14   37 1
    32   14   38 1
    33   15   16 1
    34   15   18 1
    35   15   57 1
    36   16   17 1
    37   16   39 1
    38   16   40 1
    39   17   41 1
    40   17   42 1
    41   18   19 1
    42   18   20 1
    43   18   21 1
    44   19   43 1
    45   19   44 1
    46   19   45 1
    47   20   46 1
    48   20   47 1
    49   20   48 1
    50   21   49 1
    51   21   50 1
    52   21   51 1
    53   22   23 1
    54   22   52 1
    55   22   56 1
    56   23   53 1
    57   23   54 1
    58   23   55 1
@<TRIPOS>MOLECULE
ZINC62982396
   54    56     0     0     0
SMALL
USER_CHARGES

@<TRIPOS>ATOM
      1 C1         -0.0187    1.5258    0.0104 C.3       1 <0>        -0.1621
      2 C2          0.0021   -0.0041    0.0020 C.3       1 <0>        -0.1193
      3 C3         -1.4333   -0.5336    0.0129 C.3       1 <0>        -0.0835
      4 H1         -1.9862   -0.1019   -0.8214 H         1 <0>         0.0859
      5 C4         -2.1103   -0.1453    1.3289 C.3       1 <0>        -0.1288
      6 C5         -3.5456   -0.6748    1.3397 C.3       1 <0>        -0.1500
      7 C6         -3.5280   -2.1989    1.2056 C.3       1 <0>         0.0920
      8 H2         -2.9751   -2.6306    2.0399 H         1 <0>         0.0817
      9 C7         -2.8510   -2.5872   -0.1103 C.3       1 <0>         0.0389
     10 H3         -3.4039   -2.1555   -0.9446 H         1 <0>         0.1489
     11 C8         -1.4157   -2.0577   -0.1212 C.3       1 <0>        -0.1382
     12 N1         -2.8341   -4.0505   -0.2391 N.4       1 <0>        -0.3919
     13 C9         -4.2219   -4.5738   -0.3179 C.3       1 <0>         0.0131
     14 C10        -4.0419   -5.9552   -0.9961 C.3       1 <0>        -0.1675
     15 C11        -2.9209   -5.6906   -2.0272 C.3       1 <0>         0.0064
     16 H4         -3.3494   -5.4943   -3.0100 H         1 <0>         0.1777
     17 C12        -2.1824   -4.4434   -1.5073 C.3       1 <0>        -0.0305
     18 N2         -2.0057   -6.8379   -2.0910 N.4       1 <0>        -0.3824
     19 C13        -0.9260   -6.5484   -3.0424 C.3       1 <0>        -0.0160
     20 C14         0.0741   -7.7064   -3.0526 C.3       1 <0>        -0.1461
     21 C15        -0.6457   -8.9918   -3.4707 C.3       1 <0>        -0.1431
     22 C16        -1.8157   -9.2438   -2.5153 C.3       1 <0>        -0.1465
     23 C17        -2.7459   -8.0288   -2.5250 C.3       1 <0>        -0.0103
     24 O1         -4.8686   -2.6935    1.2158 O.3       1 <0>        -0.5774
     25 H5          1.0039    1.9031    0.0027 H         1 <0>         0.0649
     26 H6         -0.5459    1.8868   -0.8726 H         1 <0>         0.0586
     27 H7         -0.5289    1.8773    0.9072 H         1 <0>         0.0613
     28 H8          0.5123   -0.3556   -0.8948 H         1 <0>         0.0664
     29 H9          0.5293   -0.3651    0.8851 H         1 <0>         0.0684
     30 H10        -1.5574   -0.5770    2.1631 H         1 <0>         0.0744
     31 H11        -2.1228    0.9405    1.4244 H         1 <0>         0.0916
     32 H12        -4.0279   -0.3982    2.2772 H         1 <0>         0.0931
     33 H13        -4.0985   -0.2431    0.5055 H         1 <0>         0.0854
     34 H14        -0.9334   -2.3344   -1.0587 H         1 <0>         0.0912
     35 H15        -0.8628   -2.4894    0.7131 H         1 <0>         0.0918
     36 H16        -4.6475   -4.6873    0.6791 H         1 <0>         0.1661
     37 H17        -4.8445   -3.9223   -0.9313 H         1 <0>         0.1503
     38 H18        -3.7282   -6.7040   -0.2688 H         1 <0>         0.1164
     39 H19        -4.9608   -6.2623   -1.4956 H         1 <0>         0.1480
     40 H20        -2.2639   -3.6341   -2.2329 H         1 <0>         0.1685
     41 H21        -1.1337   -4.6806   -1.3279 H         1 <0>         0.1468
     42 H22        -1.3458   -6.4227   -4.0404 H         1 <0>         0.1393
     43 H23        -0.4168   -5.6316   -2.7453 H         1 <0>         0.1276
     44 H24         0.8740   -7.4903   -3.7608 H         1 <0>         0.1200
     45 H25         0.4948   -7.8328   -2.0550 H         1 <0>         0.0897
     46 H26        -1.0224   -8.8842   -4.4878 H         1 <0>         0.0864
     47 H27         0.0493   -9.8302   -3.4249 H         1 <0>         0.1014
     48 H28        -2.3667  -10.1267   -2.8395 H         1 <0>         0.1206
     49 H29        -1.4343   -9.4022   -1.5065 H         1 <0>         0.0897
     50 H30        -3.5801   -8.2050   -1.8460 H         1 <0>         0.1342
     51 H31        -3.1269   -7.8716   -3.5341 H         1 <0>         0.1373
     52 H32        -5.3592   -2.4837    2.0223 H         1 <0>         0.4113
     53 H33        -2.3495   -4.4635    0.5437 H         1 <0>         0.4278
     54 H34        -1.6108   -7.0030   -1.1773 H         1 <0>         0.4206
@<TRIPOS>BOND
     1    1    2 1
     2    1   25 1
     3    1   26 1
     4    1   27 1
     5    2    3 1
     6    2   28 1
     7    2   29 1
     8    3    4 1
     9    3   11 1
    10    3    5 1
    11    5    6 1
    12    5   30 1
    13    5   31 1
    14    6    7 1
    15    6   32 1
    16    6   33 1
    17    7    8 1
    18    7    9 1
    19    7   24 1
    20    9   10 1
    21    9   11 1
    22    9   12 1
    23   11   34 1
    24   11   35 1
    25   12   17 1
    26   12   13 1
    27   12   53 1
    28   13   14 1
    29   13   36 1
    30   13   37 1
    31   14   15 1
    32   14   38 1
    33   14   39 1
    34   15   16 1
    35   15   17 1
    36   15   18 1
    37   17   40 1
    38   17   41 1
    39   18   23 1
    40   18   19 1
    41   18   54 1
    42   19   20 1
    43   19   42 1
    44   19   43 1
    45   20   21 1
    46   20   44 1
    47   20   45 1
    48   21   22 1
    49   21   46 1
    50   21   47 1
    51   22   23 1
    52   22   48 1
    53   22   49 1
    54   23   50 1
    55   23   51 1
    56   24   52 1
@<TRIPOS>MOLECULE
ZINC36069563
   45    47     0     0     0
SMALL
USER_CHARGES

@<TRIPOS>ATOM
      1 C1         -0.0187    1.5258    0.0104 C.3       1 <0>        -0.1731
      2 C2          0.0021   -0.0041    0.0020 C.3       1 <0>         0.0733
      3 N1          0.7106   -0.4894    1.1889 N.am      1 <0>        -0.5126
      4 C3          2.0526   -0.6872    1.1277 C.2       1 <0>         0.3502
      5 N2          2.7204   -1.1190    2.1640 N.2       1 <0>        -0.4914
      6 C4          2.1047   -1.3780    3.3143 C.2       1 <0>         0.0623
      7 C5          0.7210   -1.2034    3.4738 C.2       1 <0>        -0.2034
      8 C6          0.0189   -0.7248    2.3194 C.2       1 <0>         0.5526
      9 O1         -1.1849   -0.5377    2.3596 O.2       1 <0>        -0.4891
     10 C7          0.1829   -1.5270    4.7944 C.2       1 <0>        -0.0626
     11 C8          1.0608   -1.9591    5.7241 C.2       1 <0>        -0.1397
     12 S1          2.6332   -1.9598    4.9057 S.3       1 <0>         0.1819
     13 C9          0.7642   -2.3522    7.1391 C.3       1 <0>        -0.0411
     14 C10        -0.7523   -2.5464    7.2803 C.3       1 <0>        -0.0864
     15 H1         -1.0530   -3.4607    6.7688 H         1 <0>         0.0788
     16 C11        -1.4625   -1.3463    6.6472 C.3       1 <0>        -0.1207
     17 C12        -1.3002   -1.3890    5.1274 C.3       1 <0>        -0.0605
     18 C13        -1.1216   -2.6422    8.7620 C.3       1 <0>        -0.1497
     19 C14         2.7845   -0.4042   -0.1588 C.3       1 <0>         0.0546
     20 N3          4.2145   -0.6905    0.0181 N.4       1 <0>        -0.3743
     21 C15         4.3996   -2.1272    0.2625 C.3       1 <0>        -0.0589
     22 C16         4.9454   -0.3021   -1.1955 C.3       1 <0>        -0.0493
     23 H2          1.0039    1.9031    0.0027 H         1 <0>         0.0572
     24 H3         -0.5459    1.8868   -0.8726 H         1 <0>         0.0916
     25 H4         -0.5289    1.8773    0.9072 H         1 <0>         0.0733
     26 H5         -1.0205   -0.3814    0.0098 H         1 <0>         0.1171
     27 H6          0.5123   -0.3556   -0.8948 H         1 <0>         0.0968
     28 H7          1.2773   -3.2842    7.3764 H         1 <0>         0.0910
     29 H8          1.0983   -1.5660    7.8162 H         1 <0>         0.0945
     30 H9         -2.5224   -1.3784    6.8993 H         1 <0>         0.0781
     31 H10        -1.0276   -0.4238    7.0319 H         1 <0>         0.0681
     32 H11        -1.6881   -0.4680    4.6923 H         1 <0>         0.0878
     33 H12        -1.8457   -2.2430    4.7260 H         1 <0>         0.0827
     34 H13        -0.8250   -1.7248    9.2704 H         1 <0>         0.0593
     35 H14        -2.1984   -2.7800    8.8598 H         1 <0>         0.0632
     36 H15        -0.6045   -3.4900    9.2112 H         1 <0>         0.0606
     37 H16         2.3830   -1.0352   -0.9517 H         1 <0>         0.1640
     38 H17         2.6545    0.6441   -0.4278 H         1 <0>         0.1640
     39 H18         5.4606   -2.3396    0.3938 H         1 <0>         0.1286
     40 H19         3.8572   -2.4154    1.1630 H         1 <0>         0.1400
     41 H20         4.0183   -2.6925   -0.5879 H         1 <0>         0.1190
     42 H21         4.8081    0.7639   -1.3769 H         1 <0>         0.1263
     43 H22         6.0064   -0.5146   -1.0643 H         1 <0>         0.1327
     44 H23         4.5642   -0.8674   -2.0459 H         1 <0>         0.1259
     45 H24         4.5674   -0.1672    0.8052 H         1 <0>         0.4371
@<TRIPOS>BOND
     1    1    2 1
     2    1   23 1
     3    1   24 1
     4    1   25 1
     5    2    3 1
     6    2   26 1
     7    2   27 1
     8    3    8 am
     9    3    4 1
    10    4    5 2
    11    4   19 1
    12    5    6 1
    13    6   12 1
    14    6    7 2
    15    7    8 1
    16    7   10 1
    17    8    9 2
    18   10   17 1
    19   10   11 2
    20   11   12 1
    21   11   13 1
    22   13   14 1
    23   13   28 1
    24   13   29 1
    25   14   15 1
    26   14   16 1
    27   14   18 1
    28   16   17 1
    29   16   30 1
    30   16   31 1
    31   17   32 1
    32   17   33 1
    33   18   34 1
    34   18   35 1
    35   18   36 1
    36   19   20 1
    37   19   37 1
    38   19   38 1
    39   20   21 1
    40   20   22 1
    41   20   45 1
    42   21   39 1
    43   21   40 1
    44   21   41 1
    45   22   42 1
    46   22   43 1
    47   22   44 1
@<TRIPOS>MOLECULE
ZINC39489714
   58    60     0     0     0
SMALL
USER_CHARGES

@<TRIPOS>ATOM
      1 C1          1.8338    0.7854   -0.9818 C.3       1 <0>        -0.1002
      2 C2          2.0005   -0.6996   -0.7873 C.2       1 <0>        -0.1339
      3 C3          2.4845   -1.5745   -1.6673 C.2       1 <0>        -0.1617
      4 C4          2.4747   -2.9144   -1.0789 C.2       1 <0>         0.1766
      5 N1          2.0043   -2.8900    0.1236 N.2       1 <0>        -0.4604
      6 C5          1.6585   -1.5005    0.4497 C.3       1 <0>         0.0365
      7 H1          0.5937   -1.4205    0.6686 H         1 <0>         0.1394
      8 C6          2.4711   -1.0193    1.6241 C.2       1 <0>         0.5640
      9 O1          3.4606   -1.6304    1.9680 O.2       1 <0>        -0.5028
     10 N2          2.0982    0.0903    2.2921 N.am      1 <0>        -0.6223
     11 C7          0.9193    0.9223    1.9870 C.3       1 <0>         0.0815
     12 C8          0.5820    1.6396    3.3193 C.3       1 <0>        -0.1167
     13 C9          1.9919    1.9008    3.8948 C.3       1 <0>        -0.0957
     14 C10         2.7964    0.6694    3.4513 C.3       1 <0>         0.1147
     15 C11         1.9325    1.9815    5.4149 C.3       1 <0>        -0.1198
     16 C12         3.3295    2.3038    5.9572 C.3       1 <0>        -0.1486
     17 C13         3.8368    3.5913    5.3039 C.3       1 <0>        -0.0317
     18 N3          3.9182    3.4095    3.8496 N.4       1 <0>        -0.3865
     19 C14         2.5751    3.1757    3.3020 C.3       1 <0>         0.0053
     20 C15         4.4920    4.6155    3.2379 C.3       1 <0>        -0.0040
     21 C16         6.0184    4.5119    3.2406 C.3       1 <0>        -0.0864
     22 C17         6.4474    3.2801    2.4409 C.3       1 <0>        -0.1644
     23 C18         6.6160    5.7676    2.6026 C.3       1 <0>        -0.1454
     24 C19         6.5184    4.3844    4.6810 C.3       1 <0>        -0.1743
     25 C20         2.9504   -4.1588   -1.7834 C.3       1 <0>        -0.1032
     26 H2          2.7429    1.2975   -0.6664 H         1 <0>         0.0716
     27 H3          1.6453    0.9951   -2.0347 H         1 <0>         0.0825
     28 H4          0.9927    1.1379   -0.3848 H         1 <0>         0.0753
     29 H5          2.8304   -1.3326   -2.6614 H         1 <0>         0.1509
     30 H6          1.1601    1.6520    1.2139 H         1 <0>         0.0831
     31 H7          0.0847    0.2961    1.6717 H         1 <0>         0.0916
     32 H8          0.0548    2.5760    3.1365 H         1 <0>         0.1017
     33 H9          0.0052    0.9902    3.9777 H         1 <0>         0.1018
     34 H10         2.8398   -0.0595    4.2606 H         1 <0>         0.0921
     35 H11         3.8042    0.9705    3.1652 H         1 <0>         0.0549
     36 H12         1.2369    2.7667    5.7110 H         1 <0>         0.0925
     37 H13         1.5971    1.0258    5.8176 H         1 <0>         0.0996
     38 H14         3.2786    2.4390    7.0376 H         1 <0>         0.1179
     39 H15         4.0091    1.4843    5.7233 H         1 <0>         0.0868
     40 H16         3.1503    4.4073    5.5295 H         1 <0>         0.1316
     41 H17         4.8254    3.8314    5.6953 H         1 <0>         0.1464
     42 H18         2.6378    3.0759    2.2184 H         1 <0>         0.1299
     43 H19         1.9306    4.0188    3.5507 H         1 <0>         0.1390
     44 H20         4.1358    4.7071    2.2118 H         1 <0>         0.1311
     45 H21         4.1863    5.4927    3.8082 H         1 <0>         0.1343
     46 H22         6.0912    3.3709    1.4148 H         1 <0>         0.0744
     47 H23         7.5349    3.2063    2.4429 H         1 <0>         0.0887
     48 H24         6.0217    2.3855    2.8954 H         1 <0>         0.0470
     49 H25         6.3104    6.6452    3.1723 H         1 <0>         0.0694
     50 H26         7.7035    5.6938    2.6045 H         1 <0>         0.0788
     51 H27         6.2598    5.8584    1.5764 H         1 <0>         0.0686
     52 H28         6.2455    3.4055    5.0750 H         1 <0>         0.0612
     53 H29         7.6027    4.4945    4.7003 H         1 <0>         0.0867
     54 H30         6.0633    5.1625    5.2938 H         1 <0>         0.0746
     55 H31         4.0125   -4.3045   -1.5862 H         1 <0>         0.0898
     56 H32         2.3914   -5.0199   -1.4172 H         1 <0>         0.0847
     57 H33         2.7915   -4.0520   -2.8565 H         1 <0>         0.0845
     58 H34         4.5074    2.6168    3.6430 H         1 <0>         0.4168
@<TRIPOS>BOND
     1    1    2 1
     2    1   26 1
     3    1   27 1
     4    1   28 1
     5    2    6 1
     6    2    3 2
     7    3    4 1
     8    3   29 1
     9    4    5 2
    10    4   25 1
    11    5    6 1
    12    6    7 1
    13    6    8 1
    14    8    9 2
    15    8   10 am
    16   10   14 1
    17   10   11 1
    18   11   12 1
    19   11   30 1
    20   11   31 1
    21   12   13 1
    22   12   32 1
    23   12   33 1
    24   13   19 1
    25   13   14 1
    26   13   15 1
    27   14   34 1
    28   14   35 1
    29   15   16 1
    30   15   36 1
    31   15   37 1
    32   16   17 1
    33   16   38 1
    34   16   39 1
    35   17   18 1
    36   17   40 1
    37   17   41 1
    38   18   19 1
    39   18   20 1
    40   18   58 1
    41   19   42 1
    42   19   43 1
    43   20   21 1
    44   20   44 1
    45   20   45 1
    46   21   22 1
    47   21   23 1
    48   21   24 1
    49   22   46 1
    50   22   47 1
    51   22   48 1
    52   23   49 1
    53   23   50 1
    54   23   51 1
    55   24   52 1
    56   24   53 1
    57   24   54 1
    58   25   55 1
    59   25   56 1
    60   25   57 1
@<TRIPOS>MOLECULE
ZINC48961435
   40    43     0     0     0
SMALL
USER_CHARGES

@<TRIPOS>ATOM
      1 C1         -0.8329    1.3665    0.0403 C.3       1 <0>        -0.1340
      2 C2          0.6192    1.9119    0.0057 C.3       1 <0>        -0.1320
      3 C3          1.3668    0.8609    0.8635 C.3       1 <0>         0.1017
      4 N1          0.7315   -0.4252    0.5230 N.pl3     1 <0>        -0.5464
      5 C4         -0.6280   -0.1631    0.0284 C.3       1 <0>         0.1107
      6 C5          1.3196   -1.6759    0.6479 C.2       1 <0>         0.4016
      7 N2          0.8226   -2.8514    0.3625 N.2       1 <0>        -0.3798
      8 N3          1.5685   -3.9912    0.5568 N.pl3     1 <0>        -0.3844
      9 C6          2.8267   -3.8687    1.0494 C.2       1 <0>         0.2333
     10 S1          3.9828   -5.0834    1.3942 S.2       1 <0>        -0.3528
     11 S2          2.9537   -2.0962    1.2324 S.3       1 <0>         0.0877
     12 C7          1.0152   -5.3099    0.2389 C.3       1 <0>         0.2407
     13 N4          1.0015   -5.4968   -1.2181 N.4       1 <0>        -0.4086
     14 C8          2.3868   -5.6406   -1.7246 C.3       1 <0>        -0.0285
     15 C9          2.4317   -7.0458   -2.4012 C.3       1 <0>        -0.0970
     16 H1          3.2270   -7.2085   -3.1286 H         1 <0>         0.1476
     17 C10         2.3749   -8.0436   -1.2025 C.3       1 <0>        -0.1420
     18 C11         0.9559   -7.8524   -0.6178 C.3       1 <0>        -0.1515
     19 C12         0.2873   -6.7641   -1.5653 C.3       1 <0>         0.0238
     20 H2         -0.8014   -6.7126   -1.5514 H         1 <0>         0.1746
     21 C13         0.9570   -7.1230   -2.9381 C.3       1 <0>        -0.1392
     22 H3         -1.3411    1.6803    0.9521 H         1 <0>         0.0885
     23 H4         -1.3869    1.6882   -0.8415 H         1 <0>         0.0973
     24 H5          1.0053    1.9306   -1.0135 H         1 <0>         0.0858
     25 H6          0.6762    2.9004    0.4615 H         1 <0>         0.1033
     26 H7          2.4251    0.8419    0.6031 H         1 <0>         0.0880
     27 H8          1.2401    1.0774    1.9243 H         1 <0>         0.0917
     28 H9         -1.3585   -0.6401    0.6817 H         1 <0>         0.0817
     29 H10        -0.7324   -0.5431   -0.9879 H         1 <0>         0.0790
     30 H11         1.6312   -6.0828    0.6986 H         1 <0>         0.1790
     31 H12        -0.0022   -5.3795    0.6237 H         1 <0>         0.1618
     32 H13         2.6048   -4.8619   -2.4555 H         1 <0>         0.1268
     33 H14         3.0976   -5.5954   -0.8995 H         1 <0>         0.1399
     34 H15         2.5091   -9.0674   -1.5515 H         1 <0>         0.0984
     35 H16         3.1311   -7.7906   -0.4593 H         1 <0>         0.0938
     36 H17         0.3964   -8.7867   -0.6637 H         1 <0>         0.1160
     37 H18         1.0129   -7.4920    0.4093 H         1 <0>         0.0916
     38 H19         0.7573   -6.3719   -3.7024 H         1 <0>         0.0998
     39 H20         0.6935   -8.1256   -3.2750 H         1 <0>         0.1267
     40 H21         0.5496   -4.7123   -1.6635 H         1 <0>         0.4254
@<TRIPOS>BOND
     1    1    5 1
     2    1    2 1
     3    1   22 1
     4    1   23 1
     5    2    3 1
     6    2   24 1
     7    2   25 1
     8    3    4 1
     9    3   26 1
    10    3   27 1
    11    4    5 1
    12    4    6 1
    13    5   28 1
    14    5   29 1
    15    6   11 1
    16    6    7 2
    17    7    8 1
    18    8    9 1
    19    8   12 1
    20    9   10 2
    21    9   11 1
    22   12   13 1
    23   12   30 1
    24   12   31 1
    25   13   19 1
    26   13   14 1
    27   13   40 1
    28   14   15 1
    29   14   32 1
    30   14   33 1
    31   15   16 1
    32   15   21 1
    33   15   17 1
    34   17   18 1
    35   17   34 1
    36   17   35 1
    37   18   19 1
    38   18   36 1
    39   18   37 1
    40   19   20 1
    41   19   21 1
    42   21   38 1
    43   21   39 1
@<TRIPOS>MOLECULE
ZINC62982962
   52    54     0     0     0
SMALL
USER_CHARGES

@<TRIPOS>ATOM
      1 C1         -0.0187    1.5258    0.0104 C.3       1 <0>        -0.1590
      2 C2          0.0021   -0.0041    0.0020 C.3       1 <0>        -0.1218
      3 C3         -1.4333   -0.5336    0.0129 C.3       1 <0>        -0.0968
      4 H1         -1.9853   -0.1013   -0.8217 H         1 <0>         0.0752
      5 C4         -2.1099   -0.1416    1.3275 C.3       1 <0>        -0.1194
      6 C5         -3.5745   -0.5912    1.3001 C.3       1 <0>        -0.1752
      7 C6         -3.6174   -2.0721    0.9943 C.2       1 <0>         0.3522
      8 O1         -4.2462   -2.8306    1.6926 O.2       1 <0>        -0.4302
      9 C7         -2.8528   -2.5784   -0.2087 C.3       1 <0>        -0.1612
     10 H2         -2.8476   -3.6684   -0.2070 H         1 <0>         0.1189
     11 C8         -1.4143   -2.0569   -0.1248 C.3       1 <0>        -0.1060
     12 C9         -3.5157   -2.0697   -1.4903 C.3       1 <0>         0.0019
     13 N1         -4.8585   -2.6530   -1.6118 N.4       1 <0>        -0.3910
     14 C10        -5.7532   -2.1019   -0.5620 C.3       1 <0>        -0.0358
     15 C11        -7.1697   -2.3403   -1.1426 C.3       1 <0>        -0.1359
     16 C12        -6.9740   -2.0728   -2.6526 C.3       1 <0>         0.0617
     17 H3         -7.2698   -1.0527   -2.8976 H         1 <0>         0.0874
     18 C13        -5.4671   -2.2673   -2.9034 C.3       1 <0>        -0.0066
     19 N2         -7.7530   -3.0331   -3.4456 N.3       1 <0>        -0.5316
     20 C14        -7.4845   -2.8707   -4.8819 C.3       1 <0>         0.0077
     21 C15        -8.2687   -3.9271   -5.6648 C.3       1 <0>         0.0616
     22 O2         -9.6601   -3.8060   -5.3570 O.3       1 <0>        -0.3773
     23 C16        -9.9576   -3.9594   -3.9666 C.3       1 <0>         0.0609
     24 C17        -9.1906   -2.9033   -3.1665 C.3       1 <0>         0.0149
     25 H4          1.0039    1.9031    0.0027 H         1 <0>         0.0612
     26 H5         -0.5459    1.8868   -0.8726 H         1 <0>         0.0545
     27 H6         -0.5289    1.8773    0.9072 H         1 <0>         0.0586
     28 H7          0.5123   -0.3556   -0.8948 H         1 <0>         0.0689
     29 H8          0.5293   -0.3651    0.8851 H         1 <0>         0.0693
     30 H9         -1.5967   -0.6251    2.1588 H         1 <0>         0.0776
     31 H10        -2.0640    0.9403    1.4514 H         1 <0>         0.0908
     32 H11        -4.0331   -0.4044    2.2711 H         1 <0>         0.1049
     33 H12        -4.1116   -0.0420    0.5267 H         1 <0>         0.0976
     34 H13        -0.8750   -2.3333   -1.0308 H         1 <0>         0.0914
     35 H14        -0.9179   -2.4940    0.7416 H         1 <0>         0.0911
     36 H15        -3.5936   -0.9831   -1.4525 H         1 <0>         0.1375
     37 H16        -2.9138   -2.3611   -2.3511 H         1 <0>         0.1455
     38 H17        -5.6255   -2.6434    0.3754 H         1 <0>         0.1520
     39 H18        -5.5696   -1.0369   -0.4203 H         1 <0>         0.1338
     40 H19        -7.4889   -3.3683   -0.9711 H         1 <0>         0.1113
     41 H20        -7.8848   -1.6370   -0.7158 H         1 <0>         0.1175
     42 H21        -5.0264   -1.3355   -3.2580 H         1 <0>         0.1359
     43 H22        -5.3119   -3.0577   -3.6378 H         1 <0>         0.1422
     44 H23        -7.7962   -1.8759   -5.2002 H         1 <0>         0.0558
     45 H24        -6.4181   -2.9960   -5.0693 H         1 <0>         0.0875
     46 H25        -8.1177   -3.7747   -6.7335 H         1 <0>         0.1061
     47 H26        -7.9193   -4.9210   -5.3853 H         1 <0>         0.0634
     48 H27       -11.0282   -3.8304   -3.8071 H         1 <0>         0.1072
     49 H28        -9.6574   -4.9543   -3.6378 H         1 <0>         0.0641
     50 H29        -9.3695   -3.0525   -2.1017 H         1 <0>         0.0936
     51 H30        -9.5295   -1.9091   -3.4574 H         1 <0>         0.0548
     52 H31        -4.8098   -3.6580   -1.5364 H         1 <0>         0.4317
@<TRIPOS>BOND
     1    1    2 1
     2    1   25 1
     3    1   26 1
     4    1   27 1
     5    2    3 1
     6    2   28 1
     7    2   29 1
     8    3    4 1
     9    3   11 1
    10    3    5 1
    11    5    6 1
    12    5   30 1
    13    5   31 1
    14    6    7 1
    15    6   32 1
    16    6   33 1
    17    7    8 2
    18    7    9 1
    19    9   10 1
    20    9   11 1
    21    9   12 1
    22   11   34 1
    23   11   35 1
    24   12   13 1
    25   12   36 1
    26   12   37 1
    27   13   18 1
    28   13   14 1
    29   13   52 1
    30   14   15 1
    31   14   38 1
    32   14   39 1
    33   15   16 1
    34   15   40 1
    35   15   41 1
    36   16   17 1
    37   16   18 1
    38   16   19 1
    39   18   42 1
    40   18   43 1
    41   19   24 1
    42   19   20 1
    43   20   21 1
    44   20   44 1
    45   20   45 1
    46   21   22 1
    47   21   46 1
    48   21   47 1
    49   22   23 1
    50   23   24 1
    51   23   48 1
    52   23   49 1
    53   24   50 1
    54   24   51 1
@<TRIPOS>MOLECULE
ZINC66892959
   52    54     0     0     0
SMALL
USER_CHARGES

@<TRIPOS>ATOM
      1 C1          1.1819    2.5783   -0.2826 C.3       1 <0>        -0.1266
      2 C2          2.6651    2.8323   -0.5594 C.3       1 <0>        -0.1208
      3 C3          3.0931    2.0502   -1.8028 C.3       1 <0>        -0.1109
      4 C4          2.8668    0.5553   -1.5680 C.3       1 <0>        -0.1074
      5 C5          1.3836    0.3013   -1.2912 C.3       1 <0>        -0.1258
      6 C6          0.9556    1.0834   -0.0478 C.3       1 <0>        -0.1193
      7 C7          3.2948   -0.2268   -2.8114 C.3       1 <0>        -0.0167
      8 N1          3.1906   -1.6674   -2.5436 N.4       1 <0>        -0.3689
      9 C8          4.1623   -2.0429   -1.5096 C.3       1 <0>        -0.0120
     10 C9          4.0027   -3.5261   -1.1689 C.3       1 <0>        -0.1480
     11 C10         4.2461   -4.3627   -2.4283 C.3       1 <0>        -0.1340
     12 C11         3.2764   -3.9114   -3.5243 C.3       1 <0>        -0.1371
     13 C12         3.4630   -2.4139   -3.7777 C.3       1 <0>         0.0058
     14 H1          4.4877   -2.2248   -4.0975 H         1 <0>         0.1554
     15 C13         2.5107   -1.9651   -4.8561 C.2       1 <0>         0.5067
     16 O1          1.4132   -1.5431   -4.5587 O.2       1 <0>        -0.5180
     17 N2          2.8785   -2.0328   -6.1509 N.am      1 <0>        -0.5922
     18 C14         4.1547   -2.6509   -6.5445 C.3       1 <0>         0.0569
     19 C15         3.8758   -3.6711   -7.6541 C.3       1 <0>         0.0455
     20 O2          3.1278   -3.0403   -8.6964 O.3       1 <0>        -0.3683
     21 C16         1.8411   -2.5681   -8.2899 C.3       1 <0>         0.0447
     22 C17         2.0131   -1.4964   -7.2133 C.3       1 <0>         0.0724
     23 H2          0.8770    3.1355    0.6032 H         1 <0>         0.0714
     24 H3          0.5914    2.9051   -1.1385 H         1 <0>         0.0666
     25 H4          2.8263    3.8972   -0.7267 H         1 <0>         0.0742
     26 H5          3.2556    2.5055    0.2965 H         1 <0>         0.0666
     27 H6          2.5026    2.3770   -2.6587 H         1 <0>         0.0738
     28 H7          4.1497    2.2311   -2.0000 H         1 <0>         0.0727
     29 H8          3.4573    0.2285   -0.7121 H         1 <0>         0.0938
     30 H9          0.7931    0.6281   -2.1471 H         1 <0>         0.0814
     31 H10         1.2224   -0.7636   -1.1239 H         1 <0>         0.0539
     32 H11         1.5461    0.7566    0.8081 H         1 <0>         0.0661
     33 H12        -0.1010    0.9025    0.1494 H         1 <0>         0.0730
     34 H13         2.6456    0.0354   -3.6468 H         1 <0>         0.1344
     35 H14         4.3262    0.0228   -3.0604 H         1 <0>         0.1289
     36 H15         5.1722   -1.8618   -1.8777 H         1 <0>         0.1316
     37 H16         3.9899   -1.4445   -0.6151 H         1 <0>         0.1384
     38 H17         4.7263   -3.8034   -0.4023 H         1 <0>         0.1183
     39 H18         2.9932   -3.7083   -0.8004 H         1 <0>         0.0902
     40 H19         5.2720   -4.2201   -2.7679 H         1 <0>         0.0863
     41 H20         4.0782   -5.4161   -2.2042 H         1 <0>         0.1028
     42 H21         3.4809   -4.4640   -4.4413 H         1 <0>         0.1142
     43 H22         2.2519   -4.1016   -3.2046 H         1 <0>         0.0981
     44 H23         4.8356   -1.8839   -6.9136 H         1 <0>         0.0967
     45 H24         4.5989   -3.1545   -5.6859 H         1 <0>         0.0941
     46 H25         4.8199   -4.0397   -8.0554 H         1 <0>         0.1182
     47 H26         3.3024   -4.5040   -7.2473 H         1 <0>         0.0614
     48 H27         1.3213   -2.1432   -9.1486 H         1 <0>         0.1193
     49 H28         1.2602   -3.3970   -7.8853 H         1 <0>         0.0616
     50 H29         1.0398   -1.2359   -6.7974 H         1 <0>         0.1108
     51 H30         2.4747   -0.6112   -7.6509 H         1 <0>         0.0920
     52 H31         2.2590   -1.8819   -2.2206 H         1 <0>         0.4276
@<TRIPOS>BOND
     1    1    6 1
     2    1    2 1
     3    1   23 1
     4    1   24 1
     5    2    3 1
     6    2   25 1
     7    2   26 1
     8    3    4 1
     9    3   27 1
    10    3   28 1
    11    4    5 1
    12    4    7 1
    13    4   29 1
    14    5    6 1
    15    5   30 1
    16    5   31 1
    17    6   32 1
    18    6   33 1
    19    7    8 1
    20    7   34 1
    21    7   35 1
    22    8   13 1
    23    8    9 1
    24    8   52 1
    25    9   10 1
    26    9   36 1
    27    9   37 1
    28   10   11 1
    29   10   38 1
    30   10   39 1
    31   11   12 1
    32   11   40 1
    33   11   41 1
    34   12   13 1
    35   12   42 1
    36   12   43 1
    37   13   14 1
    38   13   15 1
    39   15   16 2
    40   15   17 am
    41   17   22 1
    42   17   18 1
    43   18   19 1
    44   18   44 1
    45   18   45 1
    46   19   20 1
    47   19   46 1
    48   19   47 1
    49   20   21 1
    50   21   22 1
    51   21   48 1
    52   21   49 1
    53   22   50 1
    54   22   51 1
@<TRIPOS>MOLECULE
ZINC32077395
   57    58     0     0     0
SMALL
USER_CHARGES
(2S)-2-(3,4-diethoxyphenyl)-2-[(3R,5S)-3,5-dimethyl-1-piperidyl]ethanamine
@<TRIPOS>ATOM
      1 C1          1.4884    3.4630   -0.1952 C.3       1 <0>        -0.1612
      2 C2          1.5753    1.9513    0.0236 C.3       1 <0>         0.0483
      3 O1          0.4015    1.3260   -0.4990 O.3       1 <0>        -0.2886
      4 C3          0.3192   -0.0266   -0.3843 C.ar      1 <0>         0.1498
      5 C4          1.3484   -0.7366    0.2129 C.ar      1 <0>        -0.1603
      6 C5          1.2604   -2.1109    0.3342 C.ar      1 <0>        -0.1282
      7 C6          0.1526   -2.7812   -0.1503 C.ar      1 <0>        -0.1589
      8 C7         -0.8751   -2.0794   -0.7523 C.ar      1 <0>        -0.1551
      9 C8         -0.7961   -0.7012   -0.8716 C.ar      1 <0>         0.1315
     10 O2         -1.8064   -0.0093   -1.4631 O.3       1 <0>        -0.2887
     11 C9         -2.9199   -0.7676   -1.9398 C.3       1 <0>         0.0529
     12 C10        -3.9473    0.1755   -2.5690 C.3       1 <0>        -0.1633
     13 C11         0.0648   -4.2801   -0.0214 C.3       1 <0>         0.0801
     14 H1         -0.8582   -4.5536    0.5107 H         1 <0>         0.1660
     15 C12         0.1033   -4.9148   -1.4130 C.3       1 <0>        -0.0232
     16 N1          0.0421   -6.3770   -1.2862 N.4       1 <0>        -0.7105
     17 N2          1.1997   -4.7706    0.7720 N.4       1 <0>        -0.4194
     18 C13         0.9349   -6.1182    1.2919 C.3       1 <0>        -0.0155
     19 C14         2.0701   -6.5370    2.2290 C.3       1 <0>        -0.1116
     20 H2          2.1255   -5.8382    3.0767 H         1 <0>         0.1115
     21 C15         3.3939   -6.5173    1.4598 C.3       1 <0>        -0.1382
     22 C16         3.6221   -5.1154    0.8880 C.3       1 <0>        -0.1096
     23 H3          3.7061   -4.3901    1.7107 H         1 <0>         0.1055
     24 C17         2.4420   -4.7378   -0.0102 C.3       1 <0>        -0.0336
     25 C18         4.9133   -5.1024    0.0673 C.3       1 <0>        -0.1584
     26 C19         1.8043   -7.9493    2.7540 C.3       1 <0>        -0.1600
     27 H4          2.3920    3.9442    0.2071 H         1 <0>         0.0902
     28 H5          0.6015    3.8579    0.3219 H         1 <0>         0.0737
     29 H6          1.4092    3.6737   -1.2719 H         1 <0>         0.0732
     30 H7          2.4622    1.5564   -0.4935 H         1 <0>         0.0700
     31 H8          1.6545    1.7406    1.1003 H         1 <0>         0.0708
     32 H9          2.2171   -0.2159    0.5878 H         1 <0>         0.1534
     33 H10         2.0611   -2.6627    0.8042 H         1 <0>         0.1253
     34 H11        -1.7395   -2.6054   -1.1299 H         1 <0>         0.1456
     35 H12        -2.5753   -1.4903   -2.6941 H         1 <0>         0.0630
     36 H13        -3.3829   -1.3066   -1.1001 H         1 <0>         0.0661
     37 H14        -4.8044   -0.4082   -2.9359 H         1 <0>         0.0882
     38 H15        -3.4843    0.7145   -3.4087 H         1 <0>         0.0743
     39 H16        -4.2918    0.8982   -1.8147 H         1 <0>         0.0751
     40 H17        -0.7565   -4.5615   -2.0011 H         1 <0>         0.1759
     41 H18         1.0366   -4.6295   -1.9204 H         1 <0>         0.1574
     42 H19         0.0698   -6.8333   -2.2867 H         1 <0>         0.4790
     43 H20        -0.8913   -6.6623   -0.7788 H         1 <0>         0.4667
     44 H21        -0.0156   -6.1174    1.8456 H         1 <0>         0.1565
     45 H22         0.8706   -6.8283    0.4543 H         1 <0>         0.1025
     46 H23         4.2176   -6.7771    2.1410 H         1 <0>         0.1101
     47 H24         3.3521   -7.2487    0.6393 H         1 <0>         0.0820
     48 H25         2.3707   -5.4544   -0.8417 H         1 <0>         0.1154
     49 H26         2.5963   -3.7251   -0.4111 H         1 <0>         0.1570
     50 H27         5.0767   -4.0950   -0.3432 H         1 <0>         0.0744
     51 H28         4.8308   -5.8255   -0.7575 H         1 <0>         0.0676
     52 H29         5.7607   -5.3773    0.7126 H         1 <0>         0.0879
     53 H30         2.6205   -8.2498    3.4274 H         1 <0>         0.0901
     54 H31         1.7497   -8.6506    1.9083 H         1 <0>         0.0669
     55 H32         0.8516   -7.9629    3.3037 H         1 <0>         0.0757
     56 H33         0.9019   -6.7303   -0.6981 H         1 <0>         0.4366
     57 H34         1.3281   -4.0983    1.6331 H         1 <0>         0.4681
@<TRIPOS>BOND
     1    1    2 1
     2    1   27 1
     3    1   28 1
     4    1   29 1
     5    2    3 1
     6    2   30 1
     7    2   31 1
     8    3    4 1
     9    4    9 ar
    10    4    5 ar
    11    5    6 ar
    12    5   32 1
    13    6    7 ar
    14    6   33 1
    15    7    8 ar
    16    7   13 1
    17    8    9 ar
    18    8   34 1
    19    9   10 1
    20   10   11 1
    21   11   12 1
    22   11   35 1
    23   11   36 1
    24   12   37 1
    25   12   38 1
    26   12   39 1
    27   13   14 1
    28   13   15 1
    29   13   17 1
    30   15   16 1
    31   15   40 1
    32   15   41 1
    33   16   42 1
    34   16   43 1
    35   16   56 1
    36   17   24 1
    37   17   18 1
    38   17   57 1
    39   18   19 1
    40   18   44 1
    41   18   45 1
    42   19   20 1
    43   19   21 1
    44   19   26 1
    45   21   22 1
    46   21   46 1
    47   21   47 1
    48   22   23 1
    49   22   24 1
    50   22   25 1
    51   24   48 1
    52   24   49 1
    53   25   50 1
    54   25   51 1
    55   25   52 1
    56   26   53 1
    57   26   54 1
    58   26   55 1
@<TRIPOS>MOLECULE
ZINC44968592
   58    60     0     0     0
SMALL
USER_CHARGES

@<TRIPOS>ATOM
      1 C1         -0.0187    1.5258    0.0104 C.3       1 <0>        -0.1793
      2 C2          0.0021   -0.0041    0.0020 C.3       1 <0>         0.0988
      3 N1         -1.3723   -0.5112    0.0124 N.pl3     1 <0>        -0.5735
      4 C3         -2.0716   -0.7579   -1.2510 C.3       1 <0>         0.0832
      5 C4         -1.8159   -2.1971   -1.7029 C.3       1 <0>        -0.1825
      6 C5         -2.0129   -0.7582    1.2211 C.ar      1 <0>         0.4496
      7 C6         -1.3449   -0.5163    2.4174 C.ar      1 <0>        -0.1949
      8 C7         -1.9942   -0.7665    3.6126 C.ar      1 <0>         0.0490
      9 C8         -3.2947   -1.2521    3.5715 C.ar      1 <0>        -0.1692
     10 C9         -3.8969   -1.4692    2.3487 C.ar      1 <0>         0.1688
     11 N2         -3.2550   -1.2164    1.2237 N.ar      1 <0>        -0.5082
     12 C10        -4.0406   -1.5395    4.8490 C.3       1 <0>         0.1848
     13 N3         -4.7657   -0.3387    5.2718 N.am      1 <0>        -0.7440
     14 C11        -5.5077   -0.3607    6.3967 C.2       1 <0>         0.7114
     15 O1         -5.5754   -1.3771    7.0606 O.2       1 <0>        -0.5658
     16 N4         -6.1748    0.7439    6.7856 N.am      1 <0>        -0.7348
     17 C12        -6.9814    0.7200    8.0084 C.3       1 <0>         0.1521
     18 H1         -7.4379   -0.2592    8.1524 H         1 <0>         0.1281
     19 C13        -6.1289    1.1222    9.2436 C.3       1 <0>        -0.1607
     20 C14        -7.0642    2.0062   10.1044 C.3       1 <0>        -0.0075
     21 N5         -8.3623    1.9943    9.4279 N.4       1 <0>        -0.3876
     22 C15        -8.0501    1.8263    7.9834 C.3       1 <0>         0.0233
     23 H2         -7.6468    2.7470    7.5617 H         1 <0>         0.1462
     24 C16        -9.3381    1.4153    7.2830 C.3       1 <0>        -0.1376
     25 C17       -10.3338    2.5768    7.4299 C.3       1 <0>        -0.1391
     26 C18       -10.5284    2.9346    8.9029 C.3       1 <0>        -0.1502
     27 C19        -9.1739    3.1923    9.5846 C.3       1 <0>        -0.0016
     28 H3          1.0039    1.9031    0.0027 H         1 <0>         0.0906
     29 H4         -0.5459    1.8868   -0.8726 H         1 <0>         0.0688
     30 H5         -0.5289    1.8773    0.9072 H         1 <0>         0.0619
     31 H6          0.5123   -0.3556   -0.8948 H         1 <0>         0.1104
     32 H7          0.5293   -0.3651    0.8851 H         1 <0>         0.0989
     33 H8         -3.1417   -0.6062   -1.1097 H         1 <0>         0.0800
     34 H9         -1.7041   -0.0678   -2.0105 H         1 <0>         0.1179
     35 H10        -2.1835   -2.8871   -0.9434 H         1 <0>         0.0574
     36 H11        -2.3362   -2.3807   -2.6429 H         1 <0>         0.0923
     37 H12        -0.7458   -2.3488   -1.8443 H         1 <0>         0.0779
     38 H13        -0.3331   -0.1387    2.4128 H         1 <0>         0.1827
     39 H14        -1.5008   -0.5886    4.5568 H         1 <0>         0.1749
     40 H15        -4.9080   -1.8471    2.3122 H         1 <0>         0.2061
     41 H16        -4.7485   -2.3513    4.6817 H         1 <0>         0.0960
     42 H17        -3.3328   -1.8289    5.6258 H         1 <0>         0.1004
     43 H18        -4.7117    0.4721    4.7422 H         1 <0>         0.4003
     44 H19        -6.1208    1.5548    6.2560 H         1 <0>         0.4045
     45 H20        -5.8273    0.2352    9.8008 H         1 <0>         0.1141
     46 H21        -5.2528    1.6901    8.9307 H         1 <0>         0.1084
     47 H22        -7.1590    1.5882   11.1066 H         1 <0>         0.1391
     48 H23        -6.6768    3.0238   10.1562 H         1 <0>         0.1333
     49 H24        -9.1418    1.2271    6.2275 H         1 <0>         0.1121
     50 H25        -9.7439    0.5183    7.7507 H         1 <0>         0.0946
     51 H26        -9.9521    3.4471    6.8960 H         1 <0>         0.0821
     52 H27       -11.2925    2.2849    7.0012 H         1 <0>         0.0982
     53 H28       -11.1432    3.8317    8.9762 H         1 <0>         0.1160
     54 H29       -11.0339    2.1118    9.4083 H         1 <0>         0.0904
     55 H30        -9.3269    3.3983   10.6440 H         1 <0>         0.1351
     56 H31        -8.6770    4.0391    9.1113 H         1 <0>         0.1294
     57 H32        -8.8902    1.1918    9.7367 H         1 <0>         0.4257
     58 H33        -3.7028   -1.3741    0.3778 H         1 <0>         0.4422
@<TRIPOS>BOND
     1    1    2 1
     2    1   28 1
     3    1   29 1
     4    1   30 1
     5    2    3 1
     6    2   31 1
     7    2   32 1
     8    3    4 1
     9    3    6 1
    10    4    5 1
    11    4   33 1
    12    4   34 1
    13    5   35 1
    14    5   36 1
    15    5   37 1
    16    6   11 ar
    17    6    7 ar
    18    7    8 ar
    19    7   38 1
    20    8    9 ar
    21    8   39 1
    22    9   10 ar
    23    9   12 1
    24   10   11 ar
    25   10   40 1
    26   11   58 1
    27   12   13 1
    28   12   41 1
    29   12   42 1
    30   13   14 am
    31   13   43 1
    32   14   15 2
    33   14   16 am
    34   16   17 1
    35   16   44 1
    36   17   18 1
    37   17   22 1
    38   17   19 1
    39   19   20 1
    40   19   45 1
    41   19   46 1
    42   20   21 1
    43   20   47 1
    44   20   48 1
    45   21   27 1
    46   21   22 1
    47   21   57 1
    48   22   23 1
    49   22   24 1
    50   24   25 1
    51   24   49 1
    52   24   50 1
    53   25   26 1
    54   25   51 1
    55   25   52 1
    56   26   27 1
    57   26   53 1
    58   26   54 1
    59   27   55 1
    60   27   56 1
@<TRIPOS>MOLECULE
ZINC63221273
   35    37     0     0     0
SMALL
USER_CHARGES

@<TRIPOS>ATOM
      1 C1         -0.0162    1.3438    0.0094 C.ar      1 <0>         0.0370
      2 C2          1.1577    2.1180    0.0024 C.ar      1 <0>         0.0353
      3 C3          2.3894    1.5703   -0.0128 C.ar      1 <0>        -0.1365
      4 C4          2.5325    0.1079   -0.0220 C.ar      1 <0>         0.3092
      5 N1          3.5686   -0.6799   -0.0365 N.pl3     1 <0>        -0.4637
      6 C5          3.0715   -2.0615   -0.0390 C.3       1 <0>         0.2044
      7 N2          1.6058   -1.9743   -0.0240 N.pl3     1 <0>        -0.4656
      8 C6          1.2899   -0.7116   -0.0141 C.ar      1 <0>         0.3098
      9 C7          0.0021   -0.0041    0.0020 C.ar      1 <0>        -0.1377
     10 S1          3.6287   -2.9211   -1.5361 S.3       1 <0>         0.1236
     11 C8          2.9206   -1.9455   -2.8916 C.3       1 <0>        -0.1983
     12 C9          3.3126   -2.5597   -4.2107 C.2       1 <0>         0.5306
     13 O1          4.0019   -3.5574   -4.2341 O.2       1 <0>        -0.4490
     14 N3          2.8972   -2.0003   -5.3644 N.am      1 <0>        -0.5918
     15 C10         3.2593   -2.5676   -6.5829 C.2       1 <0>         0.2798
     16 N4          3.9791   -3.6260   -6.7887 N.2       1 <0>        -0.2124
     17 N5          4.2790   -4.1044   -8.0445 N.pl3     1 <0>        -0.5860
     18 C11         3.7182   -3.3208   -9.1684 C.3       1 <0>         0.1056
     19 H1          3.0231   -3.9168   -9.7598 H         1 <0>         0.1678
     20 S2          2.8338   -2.0110   -8.2254 S.3       1 <0>        -0.0822
     21 C12         4.8260   -2.7327  -10.0448 C.3       1 <0>         0.4514
     22 F1          5.6045   -3.7694  -10.5705 F         1 <0>        -0.1630
     23 F2          4.2540   -2.0020  -11.0917 F         1 <0>        -0.1616
     24 F3          5.6324   -1.8890   -9.2734 F         1 <0>        -0.1675
     25 H2         -0.9705    1.8493    0.0259 H         1 <0>         0.2045
     26 H3          1.0690    3.1943    0.0090 H         1 <0>         0.2045
     27 H4          3.2653    2.2022   -0.0185 H         1 <0>         0.2068
     28 H5          3.4241   -2.5876    0.8482 H         1 <0>         0.2714
     29 H6         -0.9237   -0.5603    0.0082 H         1 <0>         0.2069
     30 H7          1.8342   -1.9363   -2.8036 H         1 <0>         0.1387
     31 H8          3.2979   -0.9242   -2.8399 H         1 <0>         0.1385
     32 H9          2.3460   -1.2024   -5.3457 H         1 <0>         0.4342
     33 H10         4.8194   -4.8980   -8.1829 H         1 <0>         0.4572
     34 H11         4.4987   -0.4047   -0.0446 H         1 <0>         0.4990
     35 H12         0.9865   -2.7208   -0.0223 H         1 <0>         0.4990
@<TRIPOS>BOND
     1    1    9 ar
     2    1    2 ar
     3    1   25 1
     4    2    3 ar
     5    2   26 1
     6    3    4 ar
     7    3   27 1
     8    4    8 ar
     9    4    5 2
    10    5    6 1
    11    5   34 1
    12    6    7 1
    13    6   10 1
    14    6   28 1
    15    7    8 2
    16    7   35 1
    17    8    9 ar
    18    9   29 1
    19   10   11 1
    20   11   12 1
    21   11   30 1
    22   11   31 1
    23   12   13 2
    24   12   14 am
    25   14   15 1
    26   14   32 1
    27   15   20 1
    28   15   16 2
    29   16   17 1
    30   17   18 1
    31   17   33 1
    32   18   19 1
    33   18   20 1
    34   18   21 1
    35   21   22 1
    36   21   23 1
    37   21   24 1
@<TRIPOS>MOLECULE
ZINC65287396
   52    55     0     0     0
SMALL
USER_CHARGES

@<TRIPOS>ATOM
      1 C1         -0.0184    1.5028    0.0103 C.3       1 <0>        -0.1446
      2 C2          0.0021   -0.0041    0.0020 C.cat     1 <0>         0.4987
      3 N1         -1.0589   -0.7352    0.0032 N.pl3     1 <0>        -0.6258
      4 C3         -0.6350   -2.1433   -0.0065 C.3       1 <0>         0.2518
      5 H1         -0.9905   -2.6545    0.8881 H         1 <0>         0.1254
      6 N2          0.8410   -2.0802   -0.0133 N.3       1 <0>        -0.4299
      7 N3          1.1443   -0.7462   -0.0134 N.pl3     1 <0>        -0.4927
      8 C4         -1.1488   -2.8480   -1.2636 C.3       1 <0>        -0.0873
      9 C5         -0.6937   -4.3091   -1.2510 C.3       1 <0>        -0.1274
     10 C6         -1.1805   -5.0023   -2.5275 C.3       1 <0>         0.1104
     11 N4         -2.6348   -4.8242   -2.6372 N.am      1 <0>        -0.6149
     12 C7         -3.1870   -3.4644   -2.5696 C.3       1 <0>         0.1082
     13 C8         -2.6778   -2.7884   -1.2927 C.3       1 <0>        -0.1384
     14 C9         -3.4467   -5.8879   -2.7974 C.2       1 <0>         0.5168
     15 O1         -2.9786   -7.0054   -2.8522 O.2       1 <0>        -0.5199
     16 C10        -4.9364   -5.6888   -2.9084 C.3       1 <0>        -0.1379
     17 C11        -5.6208   -7.0461   -3.0825 C.3       1 <0>        -0.0783
     18 C12        -7.1104   -6.8469   -3.1935 C.2       1 <0>         0.0638
     19 C13        -7.8349   -6.7471   -4.3313 C.ar      1 <0>        -0.1672
     20 C14        -7.4669   -6.7912   -5.7516 C.ar      1 <0>        -0.0157
     21 C15        -8.4367   -6.6586   -6.6849 C.ar      1 <0>        -0.1480
     22 C16        -9.7811   -6.4802   -6.3307 C.ar      1 <0>         0.0566
     23 C17       -10.1965   -6.4293   -5.0474 C.ar      1 <0>        -0.2102
     24 C18        -9.2614   -6.5582   -3.9836 C.ar      1 <0>         0.3282
     25 N5         -9.4129   -6.5419   -2.6815 N.pl3     1 <0>        -0.5870
     26 C19        -8.0988   -6.7249   -2.0553 C.3       1 <0>         0.0612
     27 H2          1.0042    1.8801    0.0026 H         1 <0>         0.1242
     28 H3         -0.5455    1.8639   -0.8728 H         1 <0>         0.1341
     29 H4         -0.5286    1.8543    0.9071 H         1 <0>         0.1353
     30 H5          1.2264   -2.5422    0.7967 H         1 <0>         0.3862
     31 H6          2.0431   -0.3815   -0.0204 H         1 <0>         0.4771
     32 H7         -0.7492   -2.3510   -2.1476 H         1 <0>         0.0999
     33 H8          0.3946   -4.3508   -1.2068 H         1 <0>         0.0961
     34 H9         -1.1133   -4.8134   -0.3806 H         1 <0>         0.0763
     35 H10        -0.6914   -4.5575   -3.3941 H         1 <0>         0.0775
     36 H11        -0.9453   -6.0655   -2.4783 H         1 <0>         0.1062
     37 H12        -2.8616   -2.8941   -3.4396 H         1 <0>         0.0805
     38 H13        -4.2757   -3.5127   -2.5482 H         1 <0>         0.0922
     39 H14        -3.0787   -3.3069   -0.4218 H         1 <0>         0.0817
     40 H15        -3.0016   -1.7477   -1.2780 H         1 <0>         0.0769
     41 H16        -5.3072   -5.2084   -2.0030 H         1 <0>         0.1035
     42 H17        -5.1554   -5.0582   -3.7701 H         1 <0>         0.1063
     43 H18        -5.2499   -7.5265   -3.9880 H         1 <0>         0.1183
     44 H19        -5.4017   -7.6767   -2.2209 H         1 <0>         0.1199
     45 H20        -6.4370   -6.9271   -6.0469 H         1 <0>         0.1605
     46 H21        -8.1681   -6.6907   -7.7305 H         1 <0>         0.1591
     47 H22       -10.5146   -6.3790   -7.1169 H         1 <0>         0.1627
     48 H23       -11.2446   -6.2897   -4.8273 H         1 <0>         0.1617
     49 H24        -8.0909   -7.6326   -1.4519 H         1 <0>         0.1747
     50 H25        -7.8556   -5.8603   -1.4377 H         1 <0>         0.1695
     51 H26       -10.2538   -6.4314   -2.2108 H         1 <0>         0.4565
     52 H27        -1.9742   -0.4140    0.0096 H         1 <0>         0.4671
@<TRIPOS>BOND
     1    1    2 1
     2    1   27 1
     3    1   28 1
     4    1   29 1
     5    2    7 1
     6    2    3 2
     7    3    4 1
     8    3   52 1
     9    4    5 1
    10    4    6 1
    11    4    8 1
    12    6    7 1
    13    6   30 1
    14    7   31 1
    15    8   13 1
    16    8    9 1
    17    8   32 1
    18    9   10 1
    19    9   33 1
    20    9   34 1
    21   10   11 1
    22   10   35 1
    23   10   36 1
    24   11   12 1
    25   11   14 am
    26   12   13 1
    27   12   37 1
    28   12   38 1
    29   13   39 1
    30   13   40 1
    31   14   15 2
    32   14   16 1
    33   16   17 1
    34   16   41 1
    35   16   42 1
    36   17   18 1
    37   17   43 1
    38   17   44 1
    39   18   26 1
    40   18   19 2
    41   19   24 ar
    42   19   20 ar
    43   20   21 ar
    44   20   45 1
    45   21   22 ar
    46   21   46 1
    47   22   23 ar
    48   22   47 1
    49   23   24 ar
    50   23   48 1
    51   24   25 2
    52   25   26 1
    53   25   51 1
    54   26   49 1
    55   26   50 1
@<TRIPOS>MOLECULE
ZINC67561445
   62    64     0     0     0
SMALL
USER_CHARGES

@<TRIPOS>ATOM
      1 C1          4.0292   -3.2573   -4.9278 C.3       1 <0>        -0.0502
      2 N1          3.2836   -3.1738   -3.6648 N.4       1 <0>        -0.3861
      3 C2          2.0174   -3.9046   -3.7966 C.3       1 <0>        -0.0088
      4 C3          1.2005   -3.7530   -2.5116 C.3       1 <0>        -0.1390
      5 C4          1.9996   -4.3211   -1.3352 C.3       1 <0>        -0.1321
      6 C5          3.3493   -3.6023   -1.2530 C.3       1 <0>        -0.1604
      7 C6          4.0866   -3.7595   -2.5847 C.3       1 <0>        -0.0058
      8 C7          1.2229   -4.1013   -0.0354 C.3       1 <0>        -0.0060
      9 N2          1.9301   -4.7545    1.0741 N.4       1 <0>        -0.3832
     10 C8          1.2675   -4.4187    2.3400 C.3       1 <0>        -0.0093
     11 C9          2.0472   -5.0300    3.5061 C.3       1 <0>        -0.1458
     12 C10         2.0933   -6.5517    3.3403 C.3       1 <0>        -0.1377
     13 C11         2.7188   -6.8888    1.9837 C.3       1 <0>        -0.1208
     14 H1          3.7481   -6.5310    1.9585 H         1 <0>         0.1006
     15 C12         1.9142   -6.2085    0.8740 C.3       1 <0>        -0.0073
     16 C13         2.6994   -8.4043    1.7745 C.3       1 <0>         0.1489
     17 N3          3.5629   -9.0456    2.7691 N.am      1 <0>        -0.7533
     18 C14         3.7012  -10.3862    2.7772 C.2       1 <0>         0.7042
     19 O1          3.1092  -11.0634    1.9591 O.2       1 <0>        -0.5818
     20 N4          4.4956  -10.9762    3.6922 N.am      1 <0>        -0.7317
     21 C15         4.6459  -12.4335    3.7010 C.3       1 <0>         0.1553
     22 C16         5.7910  -12.8524    2.7560 C.3       1 <0>        -0.1333
     23 C17         7.0208  -12.9910    3.6874 C.3       1 <0>        -0.1265
     24 C18         6.4102  -13.6085    4.9700 C.3       1 <0>        -0.1278
     25 C19         5.0396  -12.9143    5.1087 C.3       1 <0>        -0.1316
     26 H2          4.2403   -4.3019   -5.1567 H         1 <0>         0.1254
     27 H3          3.4337   -2.8226   -5.7306 H         1 <0>         0.1304
     28 H4          4.9667   -2.7094   -4.8332 H         1 <0>         0.1290
     29 H5          1.4513   -3.5012   -4.6362 H         1 <0>         0.1432
     30 H6          2.2243   -4.9602   -3.9726 H         1 <0>         0.1343
     31 H7          0.9929   -2.6976   -2.3347 H         1 <0>         0.1013
     32 H8          0.2616   -4.2977   -2.6108 H         1 <0>         0.1252
     33 H9          2.1634   -5.3880   -1.4872 H         1 <0>         0.1141
     34 H10         3.1862   -2.5439   -1.0500 H         1 <0>         0.1058
     35 H11         3.9463   -4.0394   -0.4526 H         1 <0>         0.1063
     36 H12         4.2493   -4.8182   -2.7866 H         1 <0>         0.1342
     37 H13         5.0481   -3.2491   -2.5296 H         1 <0>         0.1414
     38 H14         1.1429   -3.0326    0.1637 H         1 <0>         0.1395
     39 H15         0.2248   -4.5286   -0.1319 H         1 <0>         0.1432
     40 H16         1.2327   -3.3353    2.4551 H         1 <0>         0.1344
     41 H17         0.2523   -4.8154    2.3347 H         1 <0>         0.1347
     42 H18         3.0626   -4.6337    3.5126 H         1 <0>         0.0888
     43 H19         1.5527   -4.7810    4.4450 H         1 <0>         0.1200
     44 H20         2.6955   -6.9872    4.1376 H         1 <0>         0.0979
     45 H21         1.0812   -6.9540    3.3850 H         1 <0>         0.0901
     46 H22         0.8852   -6.5672    0.8999 H         1 <0>         0.1396
     47 H23         2.3568   -6.4466   -0.0932 H         1 <0>         0.1314
     48 H24         1.6799   -8.7735    1.8864 H         1 <0>         0.0786
     49 H25         3.0625   -8.6376    0.7736 H         1 <0>         0.0743
     50 H26         4.0352   -8.5054    3.4218 H         1 <0>         0.3971
     51 H27         4.9679  -10.4360    4.3449 H         1 <0>         0.3961
     52 H28         3.7138  -12.9066    3.3920 H         1 <0>         0.0937
     53 H29         5.5634  -13.8063    2.2802 H         1 <0>         0.0786
     54 H30         5.9664  -12.0825    2.0046 H         1 <0>         0.0655
     55 H31         7.7621  -13.6606    3.2514 H         1 <0>         0.0715
     56 H32         7.4572  -12.0148    3.8988 H         1 <0>         0.0637
     57 H33         6.2826  -14.6846    4.8518 H         1 <0>         0.0734
     58 H34         7.0375  -13.3905    5.8343 H         1 <0>         0.0713
     59 H35         5.1189  -12.0634    5.7853 H         1 <0>         0.0706
     60 H36         4.2990  -13.6214    5.4825 H         1 <0>         0.0796
     61 H37         2.8852   -4.4301    1.1003 H         1 <0>         0.4181
     62 H38         3.0907   -2.2064   -3.4526 H         1 <0>         0.4274
@<TRIPOS>BOND
     1    1    2 1
     2    1   26 1
     3    1   27 1
     4    1   28 1
     5    2    7 1
     6    2    3 1
     7    2   62 1
     8    3    4 1
     9    3   29 1
    10    3   30 1
    11    4    5 1
    12    4   31 1
    13    4   32 1
    14    5    6 1
    15    5    8 1
    16    5   33 1
    17    6    7 1
    18    6   34 1
    19    6   35 1
    20    7   36 1
    21    7   37 1
    22    8    9 1
    23    8   38 1
    24    8   39 1
    25    9   15 1
    26    9   10 1
    27    9   61 1
    28   10   11 1
    29   10   40 1
    30   10   41 1
    31   11   12 1
    32   11   42 1
    33   11   43 1
    34   12   13 1
    35   12   44 1
    36   12   45 1
    37   13   14 1
    38   13   15 1
    39   13   16 1
    40   15   46 1
    41   15   47 1
    42   16   17 1
    43   16   48 1
    44   16   49 1
    45   17   18 am
    46   17   50 1
    47   18   19 2
    48   18   20 am
    49   20   21 1
    50   20   51 1
    51   21   25 1
    52   21   22 1
    53   21   52 1
    54   22   23 1
    55   22   53 1
    56   22   54 1
    57   23   24 1
    58   23   55 1
    59   23   56 1
    60   24   25 1
    61   24   57 1
    62   24   58 1
    63   25   59 1
    64   25   60 1
@<TRIPOS>MOLECULE
ZINC39747335
   48    51     0     0     0
SMALL
USER_CHARGES

@<TRIPOS>ATOM
      1 C1          0.3165    1.2016   -0.3293 C.3       1 <0>        -0.1969
      2 C2          0.0634   -0.2898   -0.0999 C.3       1 <0>        -0.0226
      3 H1          0.3805   -0.8515   -0.9786 H         1 <0>         0.1770
      4 C3          0.8460   -0.7531    1.1017 C.2       1 <0>         0.3988
      5 O1          0.2757   -0.9656    2.1526 O.2       1 <0>        -0.3795
      6 C4          2.2413   -0.9399    1.0059 C.2       1 <0>        -0.1096
      7 C5          3.0993   -1.3629    2.0050 C.ar      1 <0>        -0.0122
      8 C6          2.8970   -1.7247    3.3578 C.ar      1 <0>        -0.0914
      9 C7          3.9425   -2.1084    4.1241 C.ar      1 <0>        -0.0730
     10 C8          5.2561   -2.1678    3.6318 C.ar      1 <0>         0.0301
     11 C9          5.5567   -1.8430    2.3559 C.ar      1 <0>        -0.1741
     12 C10         4.4754   -1.4146    1.4530 C.ar      1 <0>         0.3213
     13 N1          4.4795   -1.0514    0.2022 N.pl3     1 <0>        -0.5275
     14 C11         3.1115   -0.7260   -0.2132 C.3       1 <0>         0.0672
     15 N2         -1.3697   -0.5131    0.1331 N.4       1 <0>        -0.4979
     16 C12        -2.1159   -0.2330   -1.1009 C.3       1 <0>         0.0825
     17 H2         -3.1578   -0.5227   -0.9643 H         1 <0>         0.1604
     18 C13        -1.5143   -1.0424   -2.2479 C.3       1 <0>        -0.1455
     19 C14        -2.1588   -0.5764   -3.5588 C.3       1 <0>        -0.1172
     20 C15        -1.6596    0.8341   -3.8658 C.3       1 <0>        -0.0974
     21 C16        -1.8405    1.7318   -2.6699 C.ar      1 <0>        -0.0438
     22 C17        -2.0455    1.2416   -1.4000 C.ar      1 <0>        -0.1412
     23 C18        -2.1979    2.1247   -0.3392 C.ar      1 <0>        -0.1302
     24 C19        -2.1482    3.4875   -0.5486 C.ar      1 <0>        -0.1050
     25 C20        -1.9455    3.9790   -1.8245 C.ar      1 <0>        -0.0826
     26 C21        -1.7935    3.1040   -2.8784 C.ar      1 <0>        -0.1084
     27 H3          1.3885    1.3968   -0.3007 H         1 <0>         0.0968
     28 H4         -0.0799    1.4920   -1.3023 H         1 <0>         0.1256
     29 H5         -0.1788    1.7785    0.4516 H         1 <0>         0.1013
     30 H6          1.9034   -1.6939    3.7800 H         1 <0>         0.1706
     31 H7          3.7606   -2.3791    5.1536 H         1 <0>         0.1692
     32 H8          6.0498   -2.4823    4.2933 H         1 <0>         0.1779
     33 H9          6.5759   -1.8967    2.0027 H         1 <0>         0.1792
     34 H10         2.7952   -1.3865   -1.0205 H         1 <0>         0.1847
     35 H11         3.0568    0.3139   -0.5353 H         1 <0>         0.1837
     36 H12        -1.5204   -1.4725    0.4069 H         1 <0>         0.4363
     37 H13        -0.4378   -0.8769   -2.2889 H         1 <0>         0.0858
     38 H14        -1.7177   -2.1024   -2.0954 H         1 <0>         0.1010
     39 H15        -1.8753   -1.2503   -4.3672 H         1 <0>         0.0968
     40 H16        -3.2435   -0.5667   -3.4515 H         1 <0>         0.0847
     41 H17        -0.6022    0.7922   -4.1272 H         1 <0>         0.0889
     42 H18        -2.2215    1.2390   -4.7075 H         1 <0>         0.0971
     43 H19        -2.3569    1.7415    0.6580 H         1 <0>         0.1186
     44 H20        -2.2670    4.1680    0.2816 H         1 <0>         0.1386
     45 H21        -1.9079    5.0448   -1.9950 H         1 <0>         0.1402
     46 H22        -1.6350    3.4891   -3.8749 H         1 <0>         0.1393
     47 H23         5.2641   -1.0070   -0.3665 H         1 <0>         0.4674
     48 H24        -1.6907    0.1005    0.8669 H         1 <0>         0.4348
@<TRIPOS>BOND
     1    1    2 1
     2    1   27 1
     3    1   28 1
     4    1   29 1
     5    2    3 1
     6    2    4 1
     7    2   15 1
     8    4    5 2
     9    4    6 1
    10    6   14 1
    11    6    7 2
    12    7   12 ar
    13    7    8 ar
    14    8    9 ar
    15    8   30 1
    16    9   10 ar
    17    9   31 1
    18   10   11 ar
    19   10   32 1
    20   11   12 ar
    21   11   33 1
    22   12   13 2
    23   13   14 1
    24   13   47 1
    25   14   34 1
    26   14   35 1
    27   15   16 1
    28   15   36 1
    29   15   48 1
    30   16   17 1
    31   16   22 1
    32   16   18 1
    33   18   19 1
    34   18   37 1
    35   18   38 1
    36   19   20 1
    37   19   39 1
    38   19   40 1
    39   20   21 1
    40   20   41 1
    41   20   42 1
    42   21   26 ar
    43   21   22 ar
    44   22   23 ar
    45   23   24 ar
    46   23   43 1
    47   24   25 ar
    48   24   44 1
    49   25   26 ar
    50   25   45 1
    51   26   46 1
@<TRIPOS>MOLECULE
ZINC52517004
   43    44     0     0     0
SMALL
USER_CHARGES

@<TRIPOS>ATOM
      1 C1         -0.0187    1.5258    0.0104 C.3       1 <0>        -0.1916
      2 C2          0.0021   -0.0041    0.0020 C.3       1 <0>        -0.0120
      3 N1          0.6897   -0.4778   -1.2066 N.4       1 <0>        -0.5114
      4 C3          0.7096   -1.9467   -1.2147 C.3       1 <0>         0.0732
      5 C4          1.4150   -2.4327   -2.4546 C.2       1 <0>        -0.2664
      6 C5          0.8060   -2.8954   -3.6437 C.2       1 <0>        -0.1221
      7 C6          1.8001   -3.2265   -4.4872 C.2       1 <0>        -0.0793
      8 O1          2.9721   -2.9902   -3.8755 O.3       1 <0>        -0.1497
      9 C7          2.7447   -2.5040   -2.6444 C.2       1 <0>         0.0998
     10 C8          3.8002   -2.1085   -1.6442 C.3       1 <0>        -0.1082
     11 C9          1.6278   -3.7708   -5.8819 C.3       1 <0>         0.0821
     12 N2          1.5741   -2.6575   -6.8388 N.4       1 <0>        -0.3891
     13 C10         2.8666   -1.9595   -6.8510 C.3       1 <0>        -0.0547
     14 C11         1.2869   -3.1795   -8.1816 C.3       1 <0>         0.0976
     15 C12         1.1102   -2.0301   -9.1401 C.2       1 <0>        -0.2694
     16 C13         2.0404   -1.4019   -9.9002 C.2       1 <0>        -0.0633
     17 C14         1.6454   -0.3582  -10.7166 C.2       1 <0>        -0.1566
     18 C15         0.3393    0.0057  -10.7324 C.2       1 <0>        -0.0847
     19 S1         -0.3796   -1.1478   -9.5749 S.3       1 <0>         0.1377
     20 Br1         2.9075    0.5482  -11.7942 Br        1 <0>         0.0032
     21 H1          1.0039    1.9031    0.0027 H         1 <0>         0.0815
     22 H2         -0.5459    1.8868   -0.8726 H         1 <0>         0.0809
     23 H3         -0.5289    1.8773    0.9072 H         1 <0>         0.1125
     24 H4          0.5293   -0.3651    0.8851 H         1 <0>         0.1354
     25 H5         -1.0205   -0.3814    0.0098 H         1 <0>         0.1354
     26 H6          0.2017   -0.1436   -2.0240 H         1 <0>         0.4271
     27 H7          1.2368   -2.3077   -0.3316 H         1 <0>         0.1443
     28 H8         -0.3130   -2.3239   -1.2069 H         1 <0>         0.1469
     29 H9         -0.2539   -2.9694   -3.8373 H         1 <0>         0.1737
     30 H10         4.0571   -2.9697   -1.0273 H         1 <0>         0.1151
     31 H11         4.6888   -1.7614   -2.1716 H         1 <0>         0.1045
     32 H12         3.4183   -1.3084   -1.0101 H         1 <0>         0.0919
     33 H13         2.4696   -4.4190   -6.1255 H         1 <0>         0.1550
     34 H14         0.7013   -4.3423   -5.9370 H         1 <0>         0.1660
     35 H15         3.6524   -2.6548   -7.1463 H         1 <0>         0.1308
     36 H16         2.8268   -1.1334   -7.5610 H         1 <0>         0.1287
     37 H17         3.0798   -1.5722   -5.8546 H         1 <0>         0.1178
     38 H18         2.1156   -3.8050   -8.5132 H         1 <0>         0.1547
     39 H19         0.3728   -3.7725   -8.1530 H         1 <0>         0.1500
     40 H20         3.0745   -1.7118   -9.8684 H         1 <0>         0.1532
     41 H21        -0.1420    0.7875  -11.3013 H         1 <0>         0.2115
     42 H22         1.6363   -0.1286   -1.2138 H         1 <0>         0.4235
     43 H23         0.8468   -2.0138   -6.5655 H         1 <0>         0.4241
@<TRIPOS>BOND
     1    1    2 1
     2    1   21 1
     3    1   22 1
     4    1   23 1
     5    2    3 1
     6    2   24 1
     7    2   25 1
     8    3    4 1
     9    3   26 1
    10    3   42 1
    11    4    5 1
    12    4   27 1
    13    4   28 1
    14    5    9 2
    15    5    6 1
    16    6    7 2
    17    6   29 1
    18    7    8 1
    19    7   11 1
    20    8    9 1
    21    9   10 1
    22   10   30 1
    23   10   31 1
    24   10   32 1
    25   11   12 1
    26   11   33 1
    27   11   34 1
    28   12   13 1
    29   12   14 1
    30   12   43 1
    31   13   35 1
    32   13   36 1
    33   13   37 1
    34   14   15 1
    35   14   38 1
    36   14   39 1
    37   15   19 1
    38   15   16 2
    39   16   17 1
    40   16   40 1
    41   17   18 2
    42   17   20 1
    43   18   19 1
    44   18   41 1
@<TRIPOS>MOLECULE
ZINC63328811
   43    46     0     0     0
SMALL
USER_CHARGES

@<TRIPOS>ATOM
      1 C1          9.5857    0.5357   -5.5697 C.3       1 <0>        -0.0111
      2 O1          8.1671    0.4543   -5.4177 O.3       1 <0>        -0.2359
      3 C2          7.6209   -0.7867   -5.3910 C.ar      1 <0>         0.2978
      4 C3          8.4937   -1.9475   -5.5104 C.ar      1 <0>        -0.0351
      5 C4          8.0121   -3.2043   -5.4912 C.ar      1 <0>        -0.0961
      6 C5          6.5662   -3.4305   -5.3459 C.ar      1 <0>         0.3173
      7 N1          5.8502   -4.5170   -5.2988 N.pl3     1 <0>        -0.4512
      8 C6          4.4470   -4.1156   -5.1429 C.3       1 <0>         0.2178
      9 H1          3.8598   -4.4718   -5.9894 H         1 <0>         0.2639
     10 N2          4.4374   -2.6482   -5.1051 N.pl3     1 <0>        -0.5090
     11 C7          5.6738   -2.2463   -5.2235 C.ar      1 <0>         0.3127
     12 C8          6.2790   -0.9130   -5.2485 C.ar      1 <0>        -0.2276
     13 S1          3.7766   -4.7840   -3.5956 S.3       1 <0>         0.1007
     14 C9          4.7151   -3.9242   -2.3031 C.3       1 <0>        -0.1448
     15 H2          4.7524   -2.8609   -2.5400 H         1 <0>         0.1323
     16 C10         6.1223   -4.4704   -2.2718 C.3       1 <0>        -0.1225
     17 C11         7.0738   -3.6227   -1.4863 C.3       1 <0>        -0.0738
     18 C12         6.9827   -3.7500   -0.0005 C.ar      1 <0>        -0.1280
     19 C13         8.1942   -3.6559    0.6860 C.ar      1 <0>        -0.0890
     20 C14         8.2548   -3.7668    2.0559 C.ar      1 <0>        -0.1192
     21 C15         7.0910   -3.9778    2.7732 C.ar      1 <0>        -0.0707
     22 C16         5.8926   -4.0673    2.1087 C.ar      1 <0>        -0.1476
     23 C17         5.8187   -3.9485    0.7097 C.ar      1 <0>         0.1533
     24 N3          4.5478   -4.0302    0.1886 N.am      1 <0>        -0.6238
     25 C18         4.0223   -4.1056   -1.0003 C.2       1 <0>         0.5428
     26 O2          2.8350   -4.3484   -1.0499 O.2       1 <0>        -0.5096
     27 H3         10.0701    0.0203   -4.7404 H         1 <0>         0.0936
     28 H4          9.8779    0.0668   -6.5093 H         1 <0>         0.0942
     29 H5          9.8911    1.5820   -5.5754 H         1 <0>         0.1463
     30 H6          9.5575   -1.7950   -5.6176 H         1 <0>         0.2101
     31 H7          8.6852   -4.0439   -5.5826 H         1 <0>         0.2158
     32 H8          5.6581   -0.0339   -5.1580 H         1 <0>         0.2087
     33 H9          6.0999   -5.4681   -1.8334 H         1 <0>         0.1118
     34 H10         6.4887   -4.5499   -3.2953 H         1 <0>         0.0435
     35 H11         8.0889   -3.8800   -1.7888 H         1 <0>         0.0994
     36 H12         6.8990   -2.5798   -1.7504 H         1 <0>         0.0722
     37 H13         9.1049   -3.4925    0.1290 H         1 <0>         0.1306
     38 H14         9.2032   -3.6902    2.5670 H         1 <0>         0.1391
     39 H15         7.1247   -4.0719    3.8485 H         1 <0>         0.1427
     40 H16         4.9869   -4.2332    2.6731 H         1 <0>         0.1367
     41 H17         3.8717   -4.0341    0.8841 H         1 <0>         0.4191
     42 H18         6.1835   -5.4261   -5.3566 H         1 <0>         0.4960
     43 H19         3.6560   -2.0814   -5.0099 H         1 <0>         0.4965
@<TRIPOS>BOND
     1    1    2 1
     2    1   27 1
     3    1   28 1
     4    1   29 1
     5    2    3 1
     6    3   12 ar
     7    3    4 ar
     8    4    5 ar
     9    4   30 1
    10    5    6 ar
    11    5   31 1
    12    6   11 ar
    13    6    7 2
    14    7    8 1
    15    7   42 1
    16    8    9 1
    17    8   10 1
    18    8   13 1
    19   10   11 2
    20   10   43 1
    21   11   12 ar
    22   12   32 1
    23   13   14 1
    24   14   15 1
    25   14   25 1
    26   14   16 1
    27   16   17 1
    28   16   33 1
    29   16   34 1
    30   17   18 1
    31   17   35 1
    32   17   36 1
    33   18   23 ar
    34   18   19 ar
    35   19   20 ar
    36   19   37 1
    37   20   21 ar
    38   20   38 1
    39   21   22 ar
    40   21   39 1
    41   22   23 ar
    42   22   40 1
    43   23   24 1
    44   24   25 am
    45   24   41 1
    46   25   26 2
@<TRIPOS>MOLECULE
ZINC64103052
   51    55     0     0     0
SMALL
USER_CHARGES

@<TRIPOS>ATOM
      1 C1         -0.0163    1.3482    0.0095 C.ar      1 <0>        -0.1463
      2 C2          1.1658    2.1014    0.0022 C.ar      1 <0>         0.0934
      3 C3          2.3912    1.5352   -0.0125 C.ar      1 <0>        -0.2215
      4 C4          2.5288    0.1198   -0.0218 C.ar      1 <0>         0.3463
      5 N1          3.5868   -0.6543   -0.0369 N.pl3     1 <0>        -0.6289
      6 C5          3.1432   -2.0528   -0.0408 C.3       1 <0>         0.0698
      7 H1          3.4952   -2.5561   -0.9413 H         1 <0>         0.1893
      8 C6          1.6315   -2.0084   -0.0255 C.2       1 <0>         0.0496
      9 C7          1.2951   -0.6984   -0.0144 C.ar      1 <0>        -0.1450
     10 C8          0.0021   -0.0041    0.0020 C.ar      1 <0>        -0.0021
     11 C9          3.6637   -2.7746    1.2037 C.3       1 <0>        -0.0078
     12 N2          5.1240   -2.6327    1.2772 N.4       1 <0>        -0.3893
     13 C10         5.7268   -3.2888    0.1218 C.3       1 <0>        -0.0637
     14 C11         7.2033   -3.0075   -0.0444 C.3       1 <0>         0.0411
     15 O1          7.9545   -3.5726    1.0372 O.3       1 <0>        -0.2901
     16 C12         8.0398   -2.7960    2.1535 C.ar      1 <0>         0.0746
     17 C13         6.9119   -2.5620    2.9156 C.ar      1 <0>        -0.1841
     18 C14         6.9751   -1.7555    4.0316 C.ar      1 <0>        -0.0481
     19 C15         8.1930   -1.1856    4.4039 C.ar      1 <0>        -0.0069
     20 C16         9.3367   -1.4335    3.6463 C.ar      1 <0>        -0.0857
     21 C17         9.2615   -2.2367    2.5222 C.ar      1 <0>         0.1220
     22 O2         10.3752   -2.4796    1.7805 O.3       1 <0>        -0.4721
     23 C18         8.2707   -0.3173    5.6033 C.ar      1 <0>         0.1343
     24 C19         9.4896    0.2532    5.9659 C.ar      1 <0>        -0.1502
     25 C20         9.5463    1.0617    7.0874 C.ar      1 <0>        -0.0659
     26 C21         8.3808    1.2738    7.8110 C.ar      1 <0>        -0.1505
     27 C22         7.2059    0.6765    7.3945 C.ar      1 <0>         0.1067
     28 N3          7.1782   -0.0852    6.3195 N.ar      1 <0>        -0.4796
     29 C23         5.6016   -3.2228    2.5320 C.3       1 <0>         0.0497
     30 H2         -0.9665    1.8612    0.0259 H         1 <0>         0.1701
     31 H3          1.0933    3.1789    0.0083 H         1 <0>         0.1726
     32 H4          3.2717    2.1606   -0.0175 H         1 <0>         0.1678
     33 H5          0.9572   -2.8520   -0.0244 H         1 <0>         0.2248
     34 H6         -0.9210   -0.5647    0.0081 H         1 <0>         0.1750
     35 H7          3.2109   -2.3372    2.0935 H         1 <0>         0.1590
     36 H8          3.4038   -3.8316    1.1461 H         1 <0>         0.1808
     37 H9          5.5875   -4.3652    0.2218 H         1 <0>         0.1570
     38 H10         5.2067   -2.9566   -0.7767 H         1 <0>         0.1365
     39 H11         7.5471   -3.4397   -0.9841 H         1 <0>         0.1555
     40 H12         7.3626   -1.9294   -0.0669 H         1 <0>         0.0807
     41 H13         6.0862   -1.5653    4.6147 H         1 <0>         0.1551
     42 H14        10.2816   -0.9986    3.9369 H         1 <0>         0.1570
     43 H15        10.5220   -1.8400    1.0703 H         1 <0>         0.4007
     44 H16        10.3774    0.0666    5.3800 H         1 <0>         0.1404
     45 H17        10.4766    1.5172    7.3932 H         1 <0>         0.1473
     46 H18         8.3920    1.8994    8.6913 H         1 <0>         0.1473
     47 H19         6.2976    0.8394    7.9556 H         1 <0>         0.1664
     48 H20         4.8647   -3.0562    3.3177 H         1 <0>         0.1509
     49 H21         5.7581   -4.2929    2.3962 H         1 <0>         0.1551
     50 H22         4.5087   -0.3528   -0.0446 H         1 <0>         0.4486
     51 H23         5.3620   -1.6523    1.2612 H         1 <0>         0.4124
@<TRIPOS>BOND
     1    1   10 ar
     2    1    2 ar
     3    1   30 1
     4    2    3 ar
     5    2   31 1
     6    3    4 ar
     7    3   32 1
     8    4    9 ar
     9    4    5 2
    10    5    6 1
    11    5   50 1
    12    6    7 1
    13    6    8 1
    14    6   11 1
    15    8    9 2
    16    8   33 1
    17    9   10 ar
    18   10   34 1
    19   11   12 1
    20   11   35 1
    21   11   36 1
    22   12   29 1
    23   12   13 1
    24   12   51 1
    25   13   14 1
    26   13   37 1
    27   13   38 1
    28   14   15 1
    29   14   39 1
    30   14   40 1
    31   15   16 1
    32   16   21 ar
    33   16   17 ar
    34   17   18 ar
    35   17   29 1
    36   18   19 ar
    37   18   41 1
    38   19   20 ar
    39   19   23 1
    40   20   21 ar
    41   20   42 1
    42   21   22 1
    43   22   43 1
    44   23   28 ar
    45   23   24 ar
    46   24   25 ar
    47   24   44 1
    48   25   26 ar
    49   25   45 1
    50   26   27 ar
    51   26   46 1
    52   27   28 ar
    53   27   47 1
    54   29   48 1
    55   29   49 1
@<TRIPOS>MOLECULE
ZINC66972502
   59    61     0     0     0
SMALL
USER_CHARGES

@<TRIPOS>ATOM
      1 C1          1.7136   -1.5925   -1.0136 C.3       1 <0>        -0.1976
      2 C2          0.9101   -1.6282    0.2880 C.3       1 <0>         0.0093
      3 H1          1.2955   -2.4195    0.9308 H         1 <0>         0.1003
      4 C3         -0.5618   -1.9011   -0.0293 C.3       1 <0>        -0.1428
      5 C4         -1.3617   -1.9361    1.2761 C.3       1 <0>        -0.1451
      6 C5         -1.1642   -0.6122    2.0200 C.3       1 <0>        -0.1488
      7 C6          0.3300   -0.3870    2.2613 C.3       1 <0>        -0.0234
      8 N1          1.0344   -0.3368    0.9745 N.4       1 <0>        -0.3937
      9 C7          2.4546   -0.0423    1.2073 C.3       1 <0>        -0.0117
     10 H2          3.0451   -0.4167    0.3710 H         1 <0>         0.1674
     11 C8          2.6482    1.4703    1.3315 C.3       1 <0>        -0.1815
     12 C9          2.9115   -0.7228    2.4993 C.3       1 <0>        -0.0382
     13 N2          2.6990   -2.1723    2.3909 N.4       1 <0>        -0.5314
     14 C10         3.2793   -2.8412    3.5629 C.3       1 <0>         0.0481
     15 C11         3.0613   -4.3282    3.4518 C.ar      1 <0>        -0.1869
     16 C12         2.0302   -4.9297    4.1466 C.ar      1 <0>        -0.0820
     17 C13         1.8298   -6.2940    4.0456 C.ar      1 <0>        -0.1123
     18 C14         2.6602   -7.0610    3.2486 C.ar      1 <0>        -0.0644
     19 C15         3.6926   -6.4660    2.5509 C.ar      1 <0>        -0.1187
     20 C16         3.8935   -5.0946    2.6460 C.ar      1 <0>         0.1946
     21 N3          4.9336   -4.4887    1.9375 N.pl3     1 <0>        -0.6926
     22 C17         6.2742   -4.3524    2.5287 C.3       1 <0>         0.1039
     23 C18         7.3018   -4.8891    1.5258 C.3       1 <0>         0.0395
     24 O1          7.0989   -4.2565    0.2599 O.3       1 <0>        -0.3705
     25 C19         5.8246   -4.5238   -0.3304 C.3       1 <0>         0.0427
     26 C20         4.7228   -3.9735    0.5753 C.3       1 <0>         0.0936
     27 H3          2.7506   -1.3390   -0.7935 H         1 <0>         0.0821
     28 H4          1.6724   -2.5706   -1.4929 H         1 <0>         0.1214
     29 H5          1.2901   -0.8425   -1.6816 H         1 <0>         0.1053
     30 H6         -0.9484   -1.1101   -0.6719 H         1 <0>         0.1052
     31 H7         -0.6526   -2.8610   -0.5377 H         1 <0>         0.1237
     32 H8         -2.4194   -2.0740    1.0519 H         1 <0>         0.1114
     33 H9         -1.0094   -2.7594    1.8975 H         1 <0>         0.0793
     34 H10        -1.5633    0.2055    1.4199 H         1 <0>         0.1033
     35 H11        -1.6856   -0.6508    2.9764 H         1 <0>         0.1250
     36 H12         0.4741    0.5547    2.7910 H         1 <0>         0.1529
     37 H13         0.7279   -1.2051    2.8617 H         1 <0>         0.1029
     38 H14         2.1297    1.8312    2.2197 H         1 <0>         0.0952
     39 H15         3.7115    1.6948    1.4151 H         1 <0>         0.1227
     40 H16         2.2413    1.9624    0.4481 H         1 <0>         0.1059
     41 H17         3.9705   -0.5219    2.6608 H         1 <0>         0.1816
     42 H18         2.3355   -0.3328    3.3385 H         1 <0>         0.1625
     43 H19         1.7094   -2.3649    2.3494 H         1 <0>         0.4127
     44 H20         4.3483   -2.6331    3.6078 H         1 <0>         0.1476
     45 H21         2.7987   -2.4702    4.4681 H         1 <0>         0.1452
     46 H22         1.3800   -4.3337    4.7699 H         1 <0>         0.1349
     47 H23         1.0233   -6.7619    4.5906 H         1 <0>         0.1427
     48 H24         2.5011   -8.1264    3.1722 H         1 <0>         0.1430
     49 H25         4.3408   -7.0655    1.9290 H         1 <0>         0.1380
     50 H26         6.4784   -3.3022    2.7371 H         1 <0>         0.0655
     51 H27         6.3281   -4.9278    3.4529 H         1 <0>         0.0910
     52 H28         8.3081   -4.6720    1.8842 H         1 <0>         0.1121
     53 H29         7.1774   -5.9666    1.4184 H         1 <0>         0.0620
     54 H30         5.7681   -4.0439   -1.3074 H         1 <0>         0.1071
     55 H31         5.6948   -5.6000   -0.4445 H         1 <0>         0.0645
     56 H32         3.7498   -4.2980    0.2066 H         1 <0>         0.0797
     57 H33         4.7682   -2.8844    0.5837 H         1 <0>         0.0458
     58 H34         3.1439   -2.5157    1.5530 H         1 <0>         0.4252
     59 H35         0.6324    0.3886    0.3998 H         1 <0>         0.4453
@<TRIPOS>BOND
     1    1    2 1
     2    1   27 1
     3    1   28 1
     4    1   29 1
     5    2    3 1
     6    2    8 1
     7    2    4 1
     8    4    5 1
     9    4   30 1
    10    4   31 1
    11    5    6 1
    12    5   32 1
    13    5   33 1
    14    6    7 1
    15    6   34 1
    16    6   35 1
    17    7    8 1
    18    7   36 1
    19    7   37 1
    20    8    9 1
    21    8   59 1
    22    9   10 1
    23    9   11 1
    24    9   12 1
    25   11   38 1
    26   11   39 1
    27   11   40 1
    28   12   13 1
    29   12   41 1
    30   12   42 1
    31   13   14 1
    32   13   43 1
    33   13   58 1
    34   14   15 1
    35   14   44 1
    36   14   45 1
    37   15   20 ar
    38   15   16 ar
    39   16   17 ar
    40   16   46 1
    41   17   18 ar
    42   17   47 1
    43   18   19 ar
    44   18   48 1
    45   19   20 ar
    46   19   49 1
    47   20   21 1
    48   21   26 1
    49   21   22 1
    50   22   23 1
    51   22   50 1
    52   22   51 1
    53   23   24 1
    54   23   52 1
    55   23   53 1
    56   24   25 1
    57   25   26 1
    58   25   54 1
    59   25   55 1
    60   26   56 1
    61   26   57 1
@<TRIPOS>MOLECULE
ZINC37106877
   36    38     0     0     0
SMALL
USER_CHARGES

@<TRIPOS>ATOM
      1 C1         -0.0163    1.3510    0.0095 C.2       1 <0>        -0.0690
      2 C2          1.1834    2.0381    0.0017 C.2       1 <0>        -0.1424
      3 C3          2.3432    1.3350   -0.0131 C.2       1 <0>        -0.1227
      4 S1          1.7534   -0.3501   -0.0166 S.3       1 <0>         0.1587
      5 C4          0.0021   -0.0041    0.0020 C.2       1 <0>        -0.2852
      6 C5         -1.1557   -0.9688    0.0086 C.3       1 <0>         0.0968
      7 N1         -1.5459   -1.2748   -1.3741 N.4       1 <0>        -0.5168
      8 C6         -2.6745   -2.2151   -1.3677 C.3       1 <0>         0.0106
      9 H1         -3.4874   -1.8182   -0.7596 H         1 <0>         0.1765
     10 C7         -2.2202   -3.5821   -0.8155 C.3       1 <0>        -0.1488
     11 C8         -2.9990   -4.6141   -1.6684 C.3       1 <0>        -0.1210
     12 C9         -2.9882   -3.9709   -3.0773 C.3       1 <0>        -0.1419
     13 C10        -3.1636   -2.4614   -2.8057 C.3       1 <0>         0.1113
     14 H2         -4.2141   -2.1848   -2.8953 H         1 <0>         0.1691
     15 N2         -2.3572   -1.6842   -3.7501 N.pl3     1 <0>        -0.4427
     16 C11        -1.0057   -1.7877   -3.9412 C.2       1 <0>        -0.0493
     17 C12        -0.6778   -0.8962   -4.8959 C.2       1 <0>         0.0555
     18 N3         -1.7985   -0.2656   -5.2773 N.pl3     1 <0>        -0.4701
     19 C13        -2.8091   -0.7360   -4.5988 C.cat     1 <0>         0.3212
     20 Br1         4.1230    1.9737   -0.0272 Br        1 <0>         0.0880
     21 H3         -0.9542    1.8862    0.0258 H         1 <0>         0.1510
     22 H4          1.1969    3.1180    0.0070 H         1 <0>         0.1605
     23 H5         -0.8599   -1.8878    0.5145 H         1 <0>         0.1529
     24 H6         -1.9992   -0.5204    0.5334 H         1 <0>         0.1589
     25 H7         -1.8197   -0.4240   -1.8425 H         1 <0>         0.4207
     26 H8         -1.1460   -3.7096   -0.9492 H         1 <0>         0.0971
     27 H9         -2.4885   -3.6766    0.2367 H         1 <0>         0.1218
     28 H10        -2.4837   -5.5745   -1.6783 H         1 <0>         0.1102
     29 H11        -4.0197   -4.7259   -1.3026 H         1 <0>         0.1013
     30 H12        -2.0380   -4.1612   -3.5763 H         1 <0>         0.0964
     31 H13        -3.8170   -4.3492   -3.6758 H         1 <0>         0.1150
     32 H14        -0.3318   -2.4556   -3.4253 H         1 <0>         0.2289
     33 H15         0.3137   -0.7200   -5.2860 H         1 <0>         0.2368
     34 H16        -3.8364   -0.4178   -4.6978 H         1 <0>         0.2741
     35 H17        -0.7651   -1.6898   -1.8600 H         1 <0>         0.4193
     36 H18        -1.8501    0.4279   -5.9534 H         1 <0>         0.4772
@<TRIPOS>BOND
     1    1    5 2
     2    1    2 1
     3    1   21 1
     4    2    3 2
     5    2   22 1
     6    3    4 1
     7    3   20 1
     8    4    5 1
     9    5    6 1
    10    6    7 1
    11    6   23 1
    12    6   24 1
    13    7    8 1
    14    7   25 1
    15    7   35 1
    16    8    9 1
    17    8   13 1
    18    8   10 1
    19   10   11 1
    20   10   26 1
    21   10   27 1
    22   11   12 1
    23   11   28 1
    24   11   29 1
    25   12   13 1
    26   12   30 1
    27   12   31 1
    28   13   14 1
    29   13   15 1
    30   15   19 1
    31   15   16 1
    32   16   17 2
    33   16   32 1
    34   17   18 1
    35   17   33 1
    36   18   19 2
    37   18   36 1
    38   19   34 1
@<TRIPOS>MOLECULE
ZINC40154218
   48    51     0     0     0
SMALL
USER_CHARGES

@<TRIPOS>ATOM
      1 C1          6.3344   -7.8255    1.2244 C.3       1 <0>        -0.1820
      2 C2          4.9155   -7.3189    1.1914 C.2       1 <0>         0.5133
      3 O1          4.6920   -6.1259    1.2970 O.2       1 <0>        -0.4952
      4 N1          3.9157   -8.1668    1.0482 N.am      1 <0>        -0.6315
      5 C3          2.6485   -7.7017    0.8726 C.2       1 <0>         0.2897
      6 C4          1.5575   -8.5797    0.9987 C.2       1 <0>        -0.1377
      7 C5          0.2879   -8.1276    0.8263 C.2       1 <0>        -0.0250
      8 C6          0.0603   -6.7743    0.5200 C.2       1 <0>        -0.1857
      9 C7         -1.2504   -6.2851    0.3378 C.2       1 <0>         0.0901
     10 C8         -1.4195   -4.9479    0.0388 C.2       1 <0>        -0.2420
     11 C9         -0.3127   -4.1193   -0.0758 C.2       1 <0>         0.4770
     12 O2         -0.4916   -2.8167   -0.3674 O.3       1 <0>        -0.3529
     13 O3          0.9282   -4.5868    0.0976 O.3       1 <0>        -0.1885
     14 C10         1.1503   -5.8847    0.3913 C.2       1 <0>         0.2013
     15 C11         2.4387   -6.3545    0.5741 C.2       1 <0>        -0.1874
     16 C12        -2.4394   -7.2021    0.4662 C.3       1 <0>         0.0164
     17 N2         -2.8326   -7.6833   -0.8649 N.4       1 <0>        -0.3900
     18 C13        -3.3367   -6.5564   -1.6710 C.3       1 <0>        -0.0287
     19 C14        -4.7873   -6.8953   -2.0740 C.3       1 <0>        -0.1401
     20 C15        -4.8312   -8.4414   -1.9541 C.3       1 <0>        -0.1311
     21 C16        -3.9103   -8.6868   -0.7328 C.3       1 <0>         0.0911
     22 H1         -4.4611   -8.5322    0.1949 H         1 <0>         0.1555
     23 C17        -3.3382  -10.0802   -0.7787 C.2       1 <0>        -0.1557
     24 C18        -3.8291  -11.0679    0.0544 C.2       1 <0>        -0.1646
     25 C19        -3.2923  -12.3107   -0.0120 C.2       1 <0>        -0.1386
     26 S1         -2.0531  -12.1104   -1.2814 S.3       1 <0>         0.1473
     27 C20        -2.3382  -10.3852   -1.6415 C.2       1 <0>        -0.2154
     28 H2          7.0174   -6.9851    1.3483 H         1 <0>         0.1142
     29 H3          6.4540   -8.5169    2.0585 H         1 <0>         0.1082
     30 H4          6.5580   -8.3408    0.2904 H         1 <0>         0.1084
     31 H5          4.0834   -9.1220    1.0679 H         1 <0>         0.4386
     32 H6          1.7298   -9.6197    1.2336 H         1 <0>         0.1720
     33 H7         -0.5458   -8.8072    0.9241 H         1 <0>         0.1622
     34 H8         -2.4121   -4.5475   -0.1060 H         1 <0>         0.2046
     35 H9          3.2790   -5.6823    0.4820 H         1 <0>         0.2145
     36 H10        -2.1768   -8.0515    1.0967 H         1 <0>         0.1634
     37 H11        -3.2703   -6.6587    0.9162 H         1 <0>         0.1734
     38 H12        -3.3204   -5.6409   -1.0797 H         1 <0>         0.1331
     39 H13        -2.7227   -6.4349   -2.5634 H         1 <0>         0.1386
     40 H14        -5.4961   -6.4351   -1.3855 H         1 <0>         0.1074
     41 H15        -4.9856   -6.5824   -3.0991 H         1 <0>         0.1220
     42 H16        -5.8449   -8.7890   -1.7548 H         1 <0>         0.1281
     43 H17        -4.4269   -8.9141   -2.8492 H         1 <0>         0.1046
     44 H18        -4.6283  -10.8524    0.7482 H         1 <0>         0.1491
     45 H19        -3.5477  -13.1932    0.5559 H         1 <0>         0.2022
     46 H20        -1.8420   -9.7492   -2.3597 H         1 <0>         0.1855
     47 H21        -2.0367   -8.0985   -1.3255 H         1 <0>         0.4228
     48 H22         0.3303   -2.3109   -0.4289 H         1 <0>         0.4577
@<TRIPOS>BOND
     1    1    2 1
     2    1   28 1
     3    1   29 1
     4    1   30 1
     5    2    3 2
     6    2    4 am
     7    4    5 2
     8    4   31 1
     9    5   15 1
    10    5    6 1
    11    6    7 2
    12    6   32 1
    13    7    8 1
    14    7   33 1
    15    8   14 1
    16    8    9 2
    17    9   10 1
    18    9   16 1
    19   10   11 2
    20   10   34 1
    21   11   12 1
    22   11   13 1
    23   12   48 1
    24   13   14 1
    25   14   15 2
    26   15   35 1
    27   16   17 1
    28   16   36 1
    29   16   37 1
    30   17   21 1
    31   17   18 1
    32   17   47 1
    33   18   19 1
    34   18   38 1
    35   18   39 1
    36   19   20 1
    37   19   40 1
    38   19   41 1
    39   20   21 1
    40   20   42 1
    41   20   43 1
    42   21   22 1
    43   21   23 1
    44   23   27 2
    45   23   24 1
    46   24   25 2
    47   24   44 1
    48   25   26 1
    49   25   45 1
    50   26   27 1
    51   27   46 1
@<TRIPOS>MOLECULE
ZINC20167279
   55    57     0     0     0
SMALL
USER_CHARGES

@<TRIPOS>ATOM
      1 C1         -0.0225    1.8097    0.0120 C.3       1 <0>        -0.1572
      2 S1          0.0021   -0.0041    0.0020 S.3       1 <0>        -0.0630
      3 C2          0.8484   -0.4107   -1.4889 C.ar      1 <0>        -0.0456
      4 C3          1.3152    0.5987   -2.3224 C.ar      1 <0>        -0.1375
      5 C4          1.9780    0.2762   -3.4901 C.ar      1 <0>        -0.0633
      6 C5          2.1775   -1.0493   -3.8305 C.ar      1 <0>        -0.1916
      7 C6          1.7140   -2.0564   -3.0038 C.ar      1 <0>        -0.0708
      8 C7          1.0558   -1.7415   -1.8315 C.ar      1 <0>        -0.1005
      9 C8          2.9014   -1.3971   -5.1057 C.3       1 <0>         0.0499
     10 N1          4.3417   -1.5039   -4.8377 N.4       1 <0>        -0.3764
     11 C9          4.5859   -2.6266   -3.9241 C.3       1 <0>        -0.0252
     12 C10         6.0749   -2.6925   -3.5775 C.3       1 <0>        -0.1381
     13 C11         6.8841   -2.8924   -4.8622 C.3       1 <0>        -0.1607
     14 C12         6.5649   -1.7553   -5.8371 C.3       1 <0>         0.0063
     15 H1          6.8785   -0.8056   -5.4037 H         1 <0>         0.1574
     16 C13         5.0578   -1.7241   -6.0999 C.3       1 <0>        -0.0321
     17 N2          7.2797   -1.9776   -7.1010 N.4       1 <0>        -0.3777
     18 C14         8.7242   -2.0206   -6.8435 C.3       1 <0>        -0.0078
     19 C15         9.4688   -2.3325   -8.1434 C.3       1 <0>        -0.1430
     20 C16         9.1646   -1.2414   -9.1740 C.3       1 <0>        -0.1023
     21 C17         7.6495   -1.1550   -9.3794 C.3       1 <0>        -0.1386
     22 C18         6.9723   -0.8867   -8.0337 C.3       1 <0>        -0.0171
     23 C19         9.8420   -1.5881  -10.5013 C.3       1 <0>         0.0764
     24 O1          9.6552   -0.5148  -11.4261 O.3       1 <0>        -0.5749
     25 H2          1.0001    2.1870    0.0043 H         1 <0>         0.0902
     26 H3         -0.5497    2.1708   -0.8711 H         1 <0>         0.0919
     27 H4         -0.5327    2.1613    0.9088 H         1 <0>         0.1234
     28 H5          1.1595    1.6340   -2.0574 H         1 <0>         0.1380
     29 H6          2.3407    1.0601   -4.1384 H         1 <0>         0.1330
     30 H7          1.8713   -3.0905   -3.2730 H         1 <0>         0.1360
     31 H8          0.6987   -2.5285   -1.1837 H         1 <0>         0.1439
     32 H9          2.5309   -2.3491   -5.4858 H         1 <0>         0.1410
     33 H10         2.7266   -0.6172   -5.8470 H         1 <0>         0.1408
     34 H11         4.0069   -2.4845   -3.0117 H         1 <0>         0.1494
     35 H12         4.2835   -3.5573   -4.4040 H         1 <0>         0.1382
     36 H13         6.3783   -1.7622   -3.0973 H         1 <0>         0.1004
     37 H14         6.2544   -3.5277   -2.9006 H         1 <0>         0.1350
     38 H15         7.9485   -2.8834   -4.6276 H         1 <0>         0.1203
     39 H16         6.6177   -3.8470   -5.3159 H         1 <0>         0.1074
     40 H17         4.7453   -2.6741   -6.5335 H         1 <0>         0.1513
     41 H18         4.8271   -0.9158   -6.7938 H         1 <0>         0.1514
     42 H19         9.0532   -1.0550   -6.4596 H         1 <0>         0.1365
     43 H20         8.9386   -2.7955   -6.1075 H         1 <0>         0.1394
     44 H21        10.5411   -2.3623   -7.9505 H         1 <0>         0.1229
     45 H22         9.1406   -3.2982   -8.5281 H         1 <0>         0.0945
     46 H23         9.5386   -0.2837   -8.8119 H         1 <0>         0.0992
     47 H24         7.4216   -0.3430  -10.0699 H         1 <0>         0.1260
     48 H25         7.2836   -2.0961   -9.7897 H         1 <0>         0.0907
     49 H26         5.8935   -0.8244   -8.1764 H         1 <0>         0.1294
     50 H27         7.3387    0.0548   -7.6243 H         1 <0>         0.1372
     51 H28        10.9080   -1.7435  -10.3355 H         1 <0>         0.0598
     52 H29         9.4009   -2.4984  -10.9074 H         1 <0>         0.0531
     53 H30        10.0594   -0.6663  -12.2914 H         1 <0>         0.3985
     54 H31         4.6679   -0.6493   -4.4118 H         1 <0>         0.4276
     55 H32         6.9855   -2.8552   -7.5028 H         1 <0>         0.4272
@<TRIPOS>BOND
     1    1    2 1
     2    1   25 1
     3    1   26 1
     4    1   27 1
     5    2    3 1
     6    3    8 ar
     7    3    4 ar
     8    4    5 ar
     9    4   28 1
    10    5    6 ar
    11    5   29 1
    12    6    7 ar
    13    6    9 1
    14    7    8 ar
    15    7   30 1
    16    8   31 1
    17    9   10 1
    18    9   32 1
    19    9   33 1
    20   10   16 1
    21   10   11 1
    22   10   54 1
    23   11   12 1
    24   11   34 1
    25   11   35 1
    26   12   13 1
    27   12   36 1
    28   12   37 1
    29   13   14 1
    30   13   38 1
    31   13   39 1
    32   14   15 1
    33   14   16 1
    34   14   17 1
    35   16   40 1
    36   16   41 1
    37   17   22 1
    38   17   18 1
    39   17   55 1
    40   18   19 1
    41   18   42 1
    42   18   43 1
    43   19   20 1
    44   19   44 1
    45   19   45 1
    46   20   21 1
    47   20   23 1
    48   20   46 1
    49   21   22 1
    50   21   47 1
    51   21   48 1
    52   22   49 1
    53   22   50 1
    54   23   24 1
    55   23   51 1
    56   23   52 1
    57   24   53 1
@<TRIPOS>MOLECULE
ZINC63886434
   41    44     0     0     0
SMALL
USER_CHARGES

@<TRIPOS>ATOM
      1 C1         -0.0178    1.4608    0.0101 C.3       1 <0>         0.0693
      2 N1          0.0021   -0.0041    0.0020 N.am      1 <0>        -0.6177
      3 C2         -1.2625   -0.7393    0.0041 C.3       1 <0>         0.4598
      4 H1         -2.0298   -0.1390   -0.4847 H         1 <0>         0.1675
      5 N2         -1.1123   -2.0123   -0.7112 N.pl3     1 <0>        -0.7257
      6 C3          0.0179   -2.7833   -0.4645 C.ar      1 <0>         0.1926
      7 C4          0.0010   -4.1634   -0.5692 C.ar      1 <0>        -0.1720
      8 C5          1.1521   -4.8827   -0.3100 C.ar      1 <0>        -0.0463
      9 C6          2.3216   -4.2339    0.0539 C.ar      1 <0>        -0.1488
     10 C7          2.3557   -2.8589    0.1617 C.ar      1 <0>        -0.0222
     11 C8          1.2035   -2.1215   -0.0984 C.ar      1 <0>        -0.2101
     12 C9          1.1864   -0.6502   -0.0128 C.2       1 <0>         0.5550
     13 O1          2.2282   -0.0260    0.0480 O.2       1 <0>        -0.4908
     14 S1         -1.7608   -1.0722    1.7163 S.3       1 <0>        -0.3049
     15 C10        -0.3939   -2.0581    2.3873 C.3       1 <0>        -0.1353
     16 C11        -0.6890   -2.4127    3.8461 C.3       1 <0>         0.2748
     17 N3         -0.9083   -1.1892    4.6277 N.pl3     1 <0>        -0.4644
     18 C12        -2.1170   -1.2439    5.1078 C.ar      1 <0>         0.3302
     19 C13        -2.8986   -0.3303    5.9526 C.ar      1 <0>        -0.1376
     20 C14        -4.1588   -0.6598    6.2998 C.ar      1 <0>         0.0336
     21 C15        -4.7711   -1.8562    5.8856 C.ar      1 <0>         0.0353
     22 C16        -4.1440   -2.7627    5.1096 C.ar      1 <0>        -0.1389
     23 C17        -2.7652   -2.5099    4.6690 C.ar      1 <0>         0.3314
     24 N4         -1.9322   -3.1890    3.9346 N.pl3     1 <0>        -0.4651
     25 H2          1.0048    1.8381    0.0023 H         1 <0>         0.1049
     26 H3         -0.5450    1.8219   -0.8730 H         1 <0>         0.0778
     27 H4         -0.5280    1.8123    0.9069 H         1 <0>         0.0730
     28 H5         -1.7866   -2.3089   -1.3423 H         1 <0>         0.4308
     29 H6         -0.9070   -4.6753   -0.8516 H         1 <0>         0.1406
     30 H7          1.1402   -5.9596   -0.3913 H         1 <0>         0.1428
     31 H8          3.2132   -4.8093    0.2550 H         1 <0>         0.1429
     32 H9          3.2695   -2.3581    0.4457 H         1 <0>         0.1460
     33 H10        -0.2864   -2.9736    1.8055 H         1 <0>         0.1609
     34 H11         0.5301   -1.4825    2.3331 H         1 <0>         0.1538
     35 H12         0.1390   -2.9831    4.2670 H         1 <0>         0.2463
     36 H13        -2.4662    0.5988    6.2934 H         1 <0>         0.2058
     37 H14        -4.7206    0.0219    6.9211 H         1 <0>         0.2038
     38 H15        -5.7842   -2.0565    6.2015 H         1 <0>         0.2038
     39 H16        -4.6515   -3.6692    4.8142 H         1 <0>         0.2058
     40 H17        -0.2694   -0.4717    4.7619 H         1 <0>         0.4959
     41 H18        -2.1018   -4.0499    3.5212 H         1 <0>         0.4954
@<TRIPOS>BOND
     1    1    2 1
     2    1   25 1
     3    1   26 1
     4    1   27 1
     5    2   12 am
     6    2    3 1
     7    3    4 1
     8    3    5 1
     9    3   14 1
    10    5    6 1
    11    5   28 1
    12    6   11 ar
    13    6    7 ar
    14    7    8 ar
    15    7   29 1
    16    8    9 ar
    17    8   30 1
    18    9   10 ar
    19    9   31 1
    20   10   11 ar
    21   10   32 1
    22   11   12 1
    23   12   13 2
    24   14   15 1
    25   15   16 1
    26   15   33 1
    27   15   34 1
    28   16   24 1
    29   16   17 1
    30   16   35 1
    31   17   18 2
    32   17   40 1
    33   18   23 ar
    34   18   19 ar
    35   19   20 ar
    36   19   36 1
    37   20   21 ar
    38   20   37 1
    39   21   22 ar
    40   21   38 1
    41   22   23 ar
    42   22   39 1
    43   23   24 2
    44   24   41 1
@<TRIPOS>MOLECULE
ZINC65528157
   55    59     0     0     0
SMALL
USER_CHARGES

@<TRIPOS>ATOM
      1 C1         -0.6957    1.8274    0.3474 C.3       1 <0>        -0.1315
      2 C2         -0.4445    0.3416    0.3256 C.ar      1 <0>        -0.1140
      3 C3         -0.1973   -0.2914   -0.8928 C.ar      1 <0>         0.0992
      4 C4          0.0379   -1.6259   -0.9910 C.ar      1 <0>        -0.1807
      5 C5          0.0409   -2.4371    0.1587 C.ar      1 <0>         0.3612
      6 N1          0.2733   -3.7451    0.0504 N.am      1 <0>        -0.5970
      7 C6          0.2900   -4.5639    1.0887 C.2       1 <0>         0.5310
      8 O1          0.5081   -5.7499    0.9277 O.2       1 <0>        -0.4288
      9 C7          0.0375   -4.0203    2.4769 C.3       1 <0>        -0.0449
     10 H1          0.9042   -4.2604    3.0928 H         1 <0>         0.1688
     11 C8         -0.2269   -2.5329    2.6055 C.2       1 <0>         0.1273
     12 C9         -0.2174   -1.7951    1.4592 C.ar      1 <0>        -0.1561
     13 C10        -0.4580   -0.3520    1.4931 C.ar      1 <0>         0.0016
     14 C11        -1.1487   -4.7513    3.0510 C.2       1 <0>        -0.0389
     15 C12        -2.4357   -4.6709    2.6233 C.2       1 <0>         0.1092
     16 N2         -3.1789   -5.4804    3.4050 N.2       1 <0>        -0.4477
     17 C13        -2.4073   -6.0499    4.2878 C.2       1 <0>         0.2191
     18 N3         -1.1375   -5.6285    4.0992 N.pl3     1 <0>        -0.4534
     19 C14         0.0354   -6.0347    4.8773 C.3       1 <0>         0.1110
     20 H2          0.9265   -5.5242    4.5118 H         1 <0>         0.1409
     21 C15        -0.1823   -5.7269    6.3766 C.3       1 <0>        -0.1588
     22 C16        -0.6642   -7.0861    6.9429 C.3       1 <0>        -0.0097
     23 N4          0.1465   -8.0756    6.1879 N.4       1 <0>        -0.5159
     24 C17         0.2248   -7.5611    4.8012 C.3       1 <0>        -0.0191
     25 C18        -2.9340   -3.8415    1.4985 C.ar      1 <0>        -0.0396
     26 C19        -2.3702   -3.9711    0.2307 C.ar      1 <0>        -0.1382
     27 C20        -2.8376   -3.1971   -0.8120 C.ar      1 <0>        -0.1200
     28 C21        -3.8634   -2.2936   -0.6003 C.ar      1 <0>        -0.0944
     29 C22        -4.4267   -2.1607    0.6561 C.ar      1 <0>        -0.1041
     30 C23        -3.9714   -2.9341    1.7046 C.ar      1 <0>        -0.0772
     31 C24         0.2971   -2.2421   -2.3416 C.3       1 <0>        -0.1334
     32 H3          0.2513    2.3543    0.4645 H         1 <0>         0.0929
     33 H4         -1.1665    2.1300   -0.5879 H         1 <0>         0.0872
     34 H5         -1.3534    2.0725    1.1813 H         1 <0>         0.0861
     35 H6         -0.1930    0.3033   -1.7943 H         1 <0>         0.1707
     36 H7         -0.4150   -2.0765    3.5661 H         1 <0>         0.1997
     37 H8         -0.6468    0.1518    2.4296 H         1 <0>         0.1752
     38 H9         -2.7302   -6.7487    5.0454 H         1 <0>         0.2177
     39 H10         0.7524   -5.4224    6.8475 H         1 <0>         0.1276
     40 H11        -0.9478   -4.9618    6.5061 H         1 <0>         0.1315
     41 H12        -0.4566   -7.1533    8.0108 H         1 <0>         0.1558
     42 H13        -1.7268   -7.2296    6.7468 H         1 <0>         0.1389
     43 H14         1.0713   -8.1436    6.5856 H         1 <0>         0.4404
     44 H15        -0.5658   -8.0036    4.1952 H         1 <0>         0.1458
     45 H16         1.1995   -7.7934    4.3719 H         1 <0>         0.1574
     46 H17        -1.5688   -4.6758    0.0645 H         1 <0>         0.1096
     47 H18        -2.4014   -3.2967   -1.7949 H         1 <0>         0.1300
     48 H19        -4.2256   -1.6893   -1.4189 H         1 <0>         0.1360
     49 H20        -5.2274   -1.4537    0.8157 H         1 <0>         0.1386
     50 H21        -4.4151   -2.8330    2.6840 H         1 <0>         0.1331
     51 H22         1.3666   -2.2217   -2.5510 H         1 <0>         0.0979
     52 H23        -0.0539   -3.2740   -2.3435 H         1 <0>         0.0719
     53 H24        -0.2339   -1.6762   -3.1070 H         1 <0>         0.1048
     54 H25         0.4377   -4.1138   -0.8316 H         1 <0>         0.4411
     55 H26        -0.3059   -8.9774    6.1996 H         1 <0>         0.4443
@<TRIPOS>BOND
     1    1    2 1
     2    1   32 1
     3    1   33 1
     4    1   34 1
     5    2   13 ar
     6    2    3 ar
     7    3    4 ar
     8    3   35 1
     9    4    5 ar
    10    4   31 1
    11    5   12 ar
    12    5    6 2
    13    6    7 am
    14    6   54 1
    15    7    8 2
    16    7    9 1
    17    9   10 1
    18    9   11 1
    19    9   14 1
    20   11   12 2
    21   11   36 1
    22   12   13 ar
    23   13   37 1
    24   14   18 1
    25   14   15 2
    26   15   16 1
    27   15   25 1
    28   16   17 2
    29   17   18 1
    30   17   38 1
    31   18   19 1
    32   19   20 1
    33   19   24 1
    34   19   21 1
    35   21   22 1
    36   21   39 1
    37   21   40 1
    38   22   23 1
    39   22   41 1
    40   22   42 1
    41   23   24 1
    42   23   43 1
    43   23   55 1
    44   24   44 1
    45   24   45 1
    46   25   30 ar
    47   25   26 ar
    48   26   27 ar
    49   26   46 1
    50   27   28 ar
    51   27   47 1
    52   28   29 ar
    53   28   48 1
    54   29   30 ar
    55   29   49 1
    56   30   50 1
    57   31   51 1
    58   31   52 1
    59   31   53 1
@<TRIPOS>MOLECULE
ZINC10764489
   47    49     0     0     0
SMALL
USER_CHARGES
2-(7-chloro-2,5-dioxabicyclo[4.4.0]deca-6,8,10-trien-9-yl)-N-[1-(4-methylsulfonylphenyl)ethyl]acetamide
@<TRIPOS>ATOM
      1 C1          2.1807   -3.9779    7.6435 C.3       1 <0>        -0.1596
      2 C2          3.1889   -2.8593    7.3727 C.3       1 <0>         0.1766
      3 H1          2.6999   -1.8926    7.4930 H         1 <0>         0.1032
      4 C3          4.3335   -2.9680    8.3469 C.ar      1 <0>        -0.0375
      5 C4          5.3411   -3.8890    8.1294 C.ar      1 <0>        -0.1361
      6 C5          6.3936   -3.9854    9.0205 C.ar      1 <0>        -0.0181
      7 C6          6.4330   -3.1679   10.1346 C.ar      1 <0>        -0.6596
      8 C7          5.4226   -2.2505   10.3548 C.ar      1 <0>        -0.0175
      9 C8          4.3729   -2.1506    9.4610 C.ar      1 <0>        -0.1272
     10 S1          7.7707   -3.2958   11.2742 S.o2      1 <0>         2.4998
     11 O1          8.8536   -3.8032   10.5067 O.2       1 <0>        -0.9364
     12 O2          7.8520   -2.0144   11.8831 O.2       1 <0>        -0.9359
     13 C9          7.2323   -4.5313   12.4883 C.3       1 <0>        -0.6500
     14 N1          3.6986   -2.9820    6.0047 N.am      1 <0>        -0.7294
     15 C10         3.0143   -2.4374    4.9792 C.2       1 <0>         0.5167
     16 O3          1.9765   -1.8459    5.1889 O.2       1 <0>        -0.5219
     17 C11         3.5386   -2.5636    3.5720 C.3       1 <0>        -0.0976
     18 C12         2.5949   -1.8741    2.6207 C.ar      1 <0>        -0.0543
     19 C13         2.7729   -0.5365    2.3208 C.ar      1 <0>        -0.0933
     20 C14         1.9068    0.1009    1.4448 C.ar      1 <0>         0.0654
     21 C15         0.8609   -0.6092    0.8678 C.ar      1 <0>         0.0608
     22 C16         0.6864   -1.9513    1.1739 C.ar      1 <0>        -0.0293
     23 C17         1.5534   -2.5804    2.0492 C.ar      1 <0>        -0.0918
     24 Cl1        -0.6205   -2.8416    0.4577 Cl        1 <0>        -0.0477
     25 O4          0.0021   -0.0041    0.0020 O.3       1 <0>        -0.2949
     26 C18        -0.0173    1.4275    0.0099 C.3       1 <0>         0.0188
     27 C19         1.4334    1.9280   -0.0013 C.3       1 <0>         0.0191
     28 O5          2.0918    1.4198    1.1641 O.3       1 <0>        -0.3014
     29 H2          1.3528   -3.8993    6.9389 H         1 <0>         0.0706
     30 H3          2.6696   -4.9447    7.5233 H         1 <0>         0.0616
     31 H4          1.8015   -3.8867    8.6613 H         1 <0>         0.0700
     32 H5          5.3080   -4.5307    7.2614 H         1 <0>         0.1325
     33 H6          7.1827   -4.7024    8.8486 H         1 <0>         0.1452
     34 H7          5.4532   -1.6122   11.2254 H         1 <0>         0.1457
     35 H8          3.5833   -1.4341    9.6332 H         1 <0>         0.1370
     36 H9          7.0413   -5.4781   11.9830 H         1 <0>         0.1317
     37 H10         8.0129   -4.6698   13.2364 H         1 <0>         0.1342
     38 H11         6.3193   -4.1886   12.9751 H         1 <0>         0.1319
     39 H12         4.5286   -3.4551    5.8370 H         1 <0>         0.4016
     40 H13         3.6163   -3.6179    3.3064 H         1 <0>         0.1110
     41 H14         4.5227   -2.0993    3.5080 H         1 <0>         0.1105
     42 H15         3.5876    0.0129    2.7689 H         1 <0>         0.1395
     43 H16         1.4163   -3.6251    2.2862 H         1 <0>         0.1411
     44 H17        -0.5390    1.7929   -0.8747 H         1 <0>         0.1269
     45 H18        -0.5220    1.7833    0.9081 H         1 <0>         0.0811
     46 H19         1.9399    1.5670   -0.8964 H         1 <0>         0.0810
     47 H20         1.4465    3.0178    0.0149 H         1 <0>         0.1263
@<TRIPOS>BOND
     1    1    2 1
     2    1   29 1
     3    1   30 1
     4    1   31 1
     5    2    3 1
     6    2    4 1
     7    2   14 1
     8    4    9 ar
     9    4    5 ar
    10    5    6 ar
    11    5   32 1
    12    6    7 ar
    13    6   33 1
    14    7    8 ar
    15    7   10 1
    16    8    9 ar
    17    8   34 1
    18    9   35 1
    19   10   11 2
    20   10   12 2
    21   10   13 1
    22   13   36 1
    23   13   37 1
    24   13   38 1
    25   14   15 am
    26   14   39 1
    27   15   16 2
    28   15   17 1
    29   17   18 1
    30   17   40 1
    31   17   41 1
    32   18   23 ar
    33   18   19 ar
    34   19   20 ar
    35   19   42 1
    36   20   28 1
    37   20   21 ar
    38   21   22 ar
    39   21   25 1
    40   22   23 ar
    41   22   24 1
    42   23   43 1
    43   25   26 1
    44   26   27 1
    45   26   44 1
    46   26   45 1
    47   27   28 1
    48   27   46 1
    49   27   47 1
@<TRIPOS>MOLECULE
ZINC09926546
   51    54     0     0     0
SMALL
USER_CHARGES
1-[(3R)-2,5-dioxo-1-(2-phenylsulfanylphenyl)pyrrolidin-3-yl]piperidine-4-carboxylic acid
@<TRIPOS>ATOM
      1 C1         -1.4623    2.7563    0.5745 C.ar      1 <0>        -0.0813
      2 C2         -0.8774    2.2235    1.7090 C.ar      1 <0>        -0.1266
      3 C3          0.3656    1.6273    1.6318 C.ar      1 <0>        -0.0624
      4 C4          1.0240    1.5527    0.4101 C.ar      1 <0>        -0.1470
      5 C5          0.4306    2.0840   -0.7288 C.ar      1 <0>        -0.0628
      6 C6         -0.8101    2.6839   -0.6429 C.ar      1 <0>        -0.1262
      7 S1          2.6074    0.7868    0.3055 S.3       1 <0>        -0.0095
      8 C7          3.7402    2.1287    0.4490 C.ar      1 <0>        -0.0744
      9 C8          3.2735    3.4086    0.7158 C.ar      1 <0>        -0.1157
     10 C9          4.1639    4.4589    0.8277 C.ar      1 <0>        -0.0754
     11 C10         5.5211    4.2397    0.6751 C.ar      1 <0>        -0.1104
     12 C11         5.9948    2.9686    0.4092 C.ar      1 <0>        -0.0763
     13 C12         5.1093    1.9073    0.3004 C.ar      1 <0>         0.1067
     14 N1          5.5887    0.6151    0.0362 N.am      1 <0>        -0.5170
     15 C13         5.7421    0.1391   -1.2056 C.2       1 <0>         0.5258
     16 O1          5.4936    0.7453   -2.2257 O.2       1 <0>        -0.4256
     17 C14         6.2779   -1.2742   -1.1343 C.3       1 <0>        -0.1684
     18 C15         6.3995   -1.5387    0.3803 C.3       1 <0>        -0.0051
     19 H1          5.7581   -2.3675    0.6801 H         1 <0>         0.1884
     20 C16         5.9249   -0.2451    1.0054 C.2       1 <0>         0.5166
     21 O2          5.8592   -0.0229    2.1954 O.2       1 <0>        -0.4220
     22 C17         8.2595   -3.0726    0.1610 C.3       1 <0>        -0.0021
     23 C18         9.6628   -3.3932    0.6804 C.3       1 <0>        -0.1230
     24 C19        10.6141   -2.2544    0.3026 C.3       1 <0>        -0.1451
     25 C20        10.0829   -0.9417    0.8848 C.3       1 <0>        -0.1189
     26 C21         8.6674   -0.6922    0.3595 C.3       1 <0>        -0.0152
     27 C22        11.9844   -2.5360    0.8631 C.2       1 <0>         0.4626
     28 O3         12.4859   -1.7663    1.6480 O.co2     1 <0>        -0.6260
     29 H2         -2.4328    3.2257    0.6386 H         1 <0>         0.1325
     30 H3         -1.3918    2.2775    2.6571 H         1 <0>         0.1338
     31 H4          0.8237    1.2154    2.5189 H         1 <0>         0.1335
     32 H5          0.9392    2.0275   -1.6798 H         1 <0>         0.1327
     33 H6         -1.2719    3.0967   -1.5276 H         1 <0>         0.1336
     34 H7          2.2144    3.5832    0.8355 H         1 <0>         0.1340
     35 H8          3.7993    5.4541    1.0353 H         1 <0>         0.1377
     36 H9          6.2129    5.0642    0.7642 H         1 <0>         0.1408
     37 H10         7.0551    2.8014    0.2903 H         1 <0>         0.1337
     38 H11         7.2536   -1.3429   -1.6152 H         1 <0>         0.1450
     39 H12         5.5745   -1.9710   -1.5901 H         1 <0>         0.1609
     40 H13         7.5766   -3.8748    0.4408 H         1 <0>         0.1322
     41 H14         8.2863   -2.9809   -0.9248 H         1 <0>         0.1318
     42 H15        10.0128   -4.3234    0.2329 H         1 <0>         0.1226
     43 H16         9.6342   -3.4987    1.7650 H         1 <0>         0.0845
     44 H17        10.6741   -2.1737   -0.7828 H         1 <0>         0.0875
     45 H18        10.7330   -0.1204    0.5833 H         1 <0>         0.1132
     46 H19        10.0608   -1.0086    1.9726 H         1 <0>         0.0916
     47 H20         8.6923   -0.6116   -0.7273 H         1 <0>         0.1303
     48 H21         8.2808    0.2346    0.7834 H         1 <0>         0.1143
     49 N2          7.7963   -1.8111    0.7774 N.4       1 <0>        -0.3801
     50 H22         7.8404   -1.9038    1.7990 H         1 <0>         0.4397
     51 O4         12.6478   -3.6418    0.4904 O.co2     1 <0>        -0.7493
@<TRIPOS>BOND
     1    1    6 ar
     2    1    2 ar
     3    1   29 1
     4    2    3 ar
     5    2   30 1
     6    3    4 ar
     7    3   31 1
     8    4    5 ar
     9    4    7 1
    10    5    6 ar
    11    5   32 1
    12    6   33 1
    13    7    8 1
    14    8   13 ar
    15    8    9 ar
    16    9   10 ar
    17    9   34 1
    18   10   11 ar
    19   10   35 1
    20   11   12 ar
    21   11   36 1
    22   12   13 ar
    23   12   37 1
    24   13   14 1
    25   14   20 am
    26   14   15 am
    27   15   16 2
    28   15   17 1
    29   17   18 1
    30   17   38 1
    31   17   39 1
    32   18   19 1
    33   18   20 1
    34   18   49 1
    35   20   21 2
    36   22   23 1
    37   22   40 1
    38   22   41 1
    39   22   49 1
    40   23   24 1
    41   23   42 1
    42   23   43 1
    43   24   25 1
    44   24   27 1
    45   24   44 1
    46   25   26 1
    47   25   45 1
    48   25   46 1
    49   26   47 1
    50   26   48 1
    51   26   49 1
    52   27   28 2
    53   27   51 1
    54   49   50 1
@<TRIPOS>MOLECULE
ZINC29806403
   56    59     0     0     0
SMALL
USER_CHARGES
1-acetyl-N-[(2R)-2-(2-chlorophenyl)-2-morpholino-ethyl]indoline-5-carboxamide
@<TRIPOS>ATOM
      1 C1         -0.5149   -7.2848    2.9837 C.3       1 <0>        -0.1739
      2 C2         -0.7372   -5.7973    2.8887 C.2       1 <0>         0.5217
      3 O1         -1.1788   -5.3141    1.8678 O.2       1 <0>        -0.5172
      4 N1         -0.4452   -5.0039    3.9384 N.am      1 <0>        -0.5577
      5 C3          0.0024   -5.4793    5.2499 C.3       1 <0>         0.0951
      6 C4          0.2018   -4.2094    6.0931 C.3       1 <0>        -0.0849
      7 C5         -0.1609   -3.0747    5.1611 C.ar      1 <0>        -0.1427
      8 C6         -0.5249   -3.6123    3.9332 C.ar      1 <0>         0.1739
      9 C7         -0.9053   -2.7534    2.8965 C.ar      1 <0>        -0.1384
     10 C8         -0.9255   -1.3931    3.0904 C.ar      1 <0>        -0.0563
     11 C9         -0.5535   -0.8561    4.3255 C.ar      1 <0>        -0.1588
     12 C10        -0.1729   -1.7124    5.3619 C.ar      1 <0>        -0.0147
     13 C11        -0.5685    0.6047    4.5358 C.2       1 <0>         0.5662
     14 O2         -0.2488    1.0670    5.6140 O.2       1 <0>        -0.5376
     15 N2         -0.9365    1.4262    3.5327 N.am      1 <0>        -0.7396
     16 C12        -0.9513    2.8762    3.7415 C.3       1 <0>         0.0980
     17 C13        -1.2102    3.5807    2.4082 C.3       1 <0>         0.1118
     18 H1         -2.1189    3.1905    1.9265 H         1 <0>         0.1017
     19 C14        -1.3548    5.0623    2.6428 C.ar      1 <0>        -0.0657
     20 C15        -0.2905    5.9087    2.3941 C.ar      1 <0>        -0.0844
     21 C16        -0.4228    7.2676    2.6096 C.ar      1 <0>        -0.1168
     22 C17        -1.6198    7.7813    3.0733 C.ar      1 <0>        -0.1052
     23 C18        -2.6846    6.9362    3.3219 C.ar      1 <0>        -0.1101
     24 C19        -2.5543    5.5763    3.1017 C.ar      1 <0>        -0.0310
     25 Cl1        -3.8937    4.5149    3.4069 Cl        1 <0>        -0.0672
     26 N3         -0.0829    3.3367    1.4984 N.3       1 <0>        -0.5247
     27 C20         1.1721    3.1733    2.2466 C.3       1 <0>        -0.0006
     28 C21         2.3266    2.9802    1.2599 C.3       1 <0>         0.0621
     29 O3          2.0466    1.8579    0.4187 O.3       1 <0>        -0.3804
     30 C22         0.8318    1.9849   -0.3252 C.3       1 <0>         0.0624
     31 C23        -0.3381    2.1668    0.6455 C.3       1 <0>         0.0138
     32 H2         -0.1131   -7.5328    3.9772 H         1 <0>         0.0822
     33 H3          0.2010   -7.5987    2.2098 H         1 <0>         0.1043
     34 H4         -1.4704   -7.8086    2.8334 H         1 <0>         0.1037
     35 H5         -0.7661   -6.1359    5.6838 H         1 <0>         0.0885
     36 H6          0.9418   -6.0401    5.1356 H         1 <0>         0.0890
     37 H7         -0.4588   -4.2454    6.9719 H         1 <0>         0.0969
     38 H8          1.2492   -4.1496    6.4239 H         1 <0>         0.0971
     39 H9         -1.1899   -3.1626    1.9384 H         1 <0>         0.1458
     40 H10        -1.2249   -0.7380    2.2856 H         1 <0>         0.1257
     41 H11         0.1118   -1.3057    6.3211 H         1 <0>         0.1402
     42 H12        -1.2257    1.0080    2.5573 H         1 <0>         0.4143
     43 H13        -1.7479    3.1359    4.4542 H         1 <0>         0.0769
     44 H14         0.0203    3.1986    4.1441 H         1 <0>         0.0848
     45 H15         0.6446    5.5081    2.0316 H         1 <0>         0.1410
     46 H16         0.4091    7.9284    2.4155 H         1 <0>         0.1296
     47 H17        -1.7226    8.8431    3.2415 H         1 <0>         0.1321
     48 H18        -3.6194    7.3375    3.6844 H         1 <0>         0.1342
     49 H19         1.3547    4.0702    2.8567 H         1 <0>         0.0909
     50 H20         1.0963    2.2932    2.9021 H         1 <0>         0.0624
     51 H21         2.4369    3.8843    0.6431 H         1 <0>         0.0604
     52 H22         3.2582    2.8001    1.8163 H         1 <0>         0.0997
     53 H23         0.8986    2.8588   -0.9899 H         1 <0>         0.0635
     54 H24         0.6738    1.0778   -0.9270 H         1 <0>         0.1018
     55 H25        -0.4385    1.2697    1.2741 H         1 <0>         0.0431
     56 H26        -1.2673    2.3226    0.0778 H         1 <0>         0.0930
@<TRIPOS>BOND
     1    1    2 1
     2    1   32 1
     3    1   33 1
     4    1   34 1
     5    2    3 2
     6    2    4 am
     7    4    8 1
     8    4    5 1
     9    5    6 1
    10    5   35 1
    11    5   36 1
    12    6    7 1
    13    6   37 1
    14    6   38 1
    15    7   12 ar
    16    7    8 ar
    17    8    9 ar
    18    9   10 ar
    19    9   39 1
    20   10   11 ar
    21   10   40 1
    22   11   12 ar
    23   11   13 1
    24   12   41 1
    25   13   14 2
    26   13   15 am
    27   15   16 1
    28   15   42 1
    29   16   17 1
    30   16   43 1
    31   16   44 1
    32   17   18 1
    33   17   19 1
    34   17   26 1
    35   19   24 ar
    36   19   20 ar
    37   20   21 ar
    38   20   45 1
    39   21   22 ar
    40   21   46 1
    41   22   23 ar
    42   22   47 1
    43   23   24 ar
    44   23   48 1
    45   24   25 1
    46   26   31 1
    47   26   27 1
    48   27   28 1
    49   27   49 1
    50   27   50 1
    51   28   29 1
    52   28   51 1
    53   28   52 1
    54   29   30 1
    55   30   31 1
    56   30   53 1
    57   30   54 1
    58   31   55 1
    59   31   56 1
@<TRIPOS>MOLECULE
ZINC40159484
   54    57     0     0     0
SMALL
USER_CHARGES

@<TRIPOS>ATOM
      1 C1         -0.0187    1.5258    0.0104 C.3       1 <0>        -0.1509
      2 C2          0.0021   -0.0041    0.0020 C.3       1 <0>        -0.1394
      3 C3          0.7421   -0.5109    1.2415 C.3       1 <0>         0.1015
      4 N1          0.7619   -1.9757    1.2335 N.pl3     1 <0>        -0.4407
      5 C4         -0.1862   -2.7842    1.7881 C.2       1 <0>         0.0135
      6 C5          0.1712   -4.0660    1.5823 C.2       1 <0>        -0.1736
      7 C6          1.3959   -4.0546    0.8680 C.2       1 <0>        -0.1109
      8 C7          1.7284   -2.7520    0.6651 C.2       1 <0>         0.0610
      9 C8          2.9529   -2.2532   -0.0581 C.3       1 <0>        -0.0827
     10 C9          2.1677   -5.2420    0.4213 C.2       1 <0>         0.1739
     11 C10         1.7356   -6.5142    0.6702 C.2       1 <0>        -0.2766
     12 S1          3.0440   -7.4644   -0.0865 S.3       1 <0>         0.2126
     13 C11         3.9854   -6.1800   -0.6297 C.2       1 <0>         0.2431
     14 N2          3.3089   -5.1214   -0.2446 N.2       1 <0>        -0.5453
     15 N3          5.1882   -6.2274   -1.3240 N.am      1 <0>        -0.6104
     16 C12         5.7367   -7.4170   -1.6413 C.2       1 <0>         0.4957
     17 O1          5.1805   -8.4460   -1.3209 O.2       1 <0>        -0.4693
     18 C13         7.0411   -7.4684   -2.3942 C.3       1 <0>         0.1518
     19 H1          7.7979   -6.9525   -1.8032 H         1 <0>         0.1257
     20 C14         6.8639   -6.7094   -3.7302 C.3       1 <0>        -0.0735
     21 S2          7.7211   -7.8723   -4.8856 S.3       1 <0>        -0.2449
     22 C15         7.3562   -9.3960   -3.9186 C.3       1 <0>         0.1794
     23 N4          7.4402   -8.8725   -2.5331 N.am      1 <0>        -0.6153
     24 C16         7.9269   -9.8722   -1.7492 C.2       1 <0>         0.5491
     25 O2          7.8777   -9.8867   -0.5375 O.2       1 <0>        -0.4972
     26 C17         8.5369  -10.9624   -2.5995 C.3       1 <0>        -0.1394
     27 C18         8.5267  -10.3865   -4.0280 C.3       1 <0>        -0.1092
     28 C19         6.0052  -10.0230   -4.2686 C.3       1 <0>        -0.1381
     29 C20        -1.4250   -2.3210    2.5104 C.3       1 <0>        -0.0829
     30 H2          1.0039    1.9031    0.0027 H         1 <0>         0.0579
     31 H3         -0.5459    1.8868   -0.8726 H         1 <0>         0.0625
     32 H4         -0.5289    1.8773    0.9072 H         1 <0>         0.0582
     33 H5         -1.0205   -0.3814    0.0098 H         1 <0>         0.0698
     34 H6          0.5123   -0.3556   -0.8948 H         1 <0>         0.0691
     35 H7          1.7647   -0.1336    1.2338 H         1 <0>         0.0889
     36 H8          0.2319   -0.1594    2.1383 H         1 <0>         0.0900
     37 H9         -0.3741   -4.9414    1.9027 H         1 <0>         0.1376
     38 H10         3.7701   -2.1311    0.6527 H         1 <0>         0.0665
     39 H11         3.2415   -2.9737   -0.8234 H         1 <0>         0.0985
     40 H12         2.7326   -1.2941   -0.5267 H         1 <0>         0.0539
     41 H13         0.8475   -6.8519    1.1835 H         1 <0>         0.1929
     42 H14         5.6331   -5.4044   -1.5802 H         1 <0>         0.4229
     43 H15         5.8100   -6.6024   -3.9871 H         1 <0>         0.1105
     44 H16         7.3621   -5.7403   -3.7033 H         1 <0>         0.1386
     45 H17         9.5594  -11.1661   -2.2816 H         1 <0>         0.1167
     46 H18         7.9334  -11.8686   -2.5474 H         1 <0>         0.1149
     47 H19         8.3175  -11.1653   -4.7613 H         1 <0>         0.1031
     48 H20         9.4594   -9.8714   -4.2579 H         1 <0>         0.1011
     49 H21         5.9989  -10.3089   -5.3204 H         1 <0>         0.0855
     50 H22         5.8437  -10.9065   -3.6509 H         1 <0>         0.0766
     51 H23         5.2105   -9.3002   -4.0837 H         1 <0>         0.0664
     52 H24        -2.2417   -2.2106    1.7971 H         1 <0>         0.0698
     53 H25        -1.7004   -3.0555    3.2672 H         1 <0>         0.0797
     54 H26        -1.2289   -1.3617    2.9895 H         1 <0>         0.0615
@<TRIPOS>BOND
     1    1    2 1
     2    1   30 1
     3    1   31 1
     4    1   32 1
     5    2    3 1
     6    2   33 1
     7    2   34 1
     8    3    4 1
     9    3   35 1
    10    3   36 1
    11    4    8 1
    12    4    5 1
    13    5    6 2
    14    5   29 1
    15    6    7 1
    16    6   37 1
    17    7    8 2
    18    7   10 1
    19    8    9 1
    20    9   38 1
    21    9   39 1
    22    9   40 1
    23   10   14 1
    24   10   11 2
    25   11   12 1
    26   11   41 1
    27   12   13 1
    28   13   14 2
    29   13   15 1
    30   15   16 am
    31   15   42 1
    32   16   17 2
    33   16   18 1
    34   18   19 1
    35   18   23 1
    36   18   20 1
    37   20   21 1
    38   20   43 1
    39   20   44 1
    40   21   22 1
    41   22   27 1
    42   22   23 1
    43   22   28 1
    44   23   24 am
    45   24   25 2
    46   24   26 1
    47   26   27 1
    48   26   45 1
    49   26   46 1
    50   27   47 1
    51   27   48 1
    52   28   49 1
    53   28   50 1
    54   28   51 1
    55   29   52 1
    56   29   53 1
    57   29   54 1
@<TRIPOS>MOLECULE
ZINC59421951
   44    47     0     0     0
SMALL
USER_CHARGES

@<TRIPOS>ATOM
      1 C1         -0.0086    1.3482   -0.0232 C.ar      1 <0>        -0.0828
      2 C2          1.1747    2.0611   -0.0255 C.ar      1 <0>        -0.1406
      3 C3          2.3893    1.3883   -0.0405 C.ar      1 <0>         0.1703
      4 C4          2.4107   -0.0002   -0.0531 C.ar      1 <0>        -0.1300
      5 C5          1.2238   -0.7079   -0.0508 C.ar      1 <0>        -0.0635
      6 C6          0.0152   -0.0340   -0.0358 C.ar      1 <0>        -0.1133
      7 Br1         1.2512   -2.5986   -0.0680 Br        1 <0>        -0.0413
      8 N1          3.5892    2.1080   -0.0433 N.am      1 <0>        -0.5571
      9 C7          4.9209    1.4979    0.0481 C.3       1 <0>         0.1075
     10 C8          5.9073    2.5887   -0.4247 C.3       1 <0>        -0.1227
     11 H1          6.1053    2.4991   -1.4928 H         1 <0>         0.1323
     12 C9          5.1192    3.8824   -0.1145 C.3       1 <0>        -0.1438
     13 C10         3.6707    3.4465   -0.1359 C.2       1 <0>         0.5217
     14 O1          2.7209    4.1960   -0.2214 O.2       1 <0>        -0.4973
     15 C11         7.1897    2.5351    0.3650 C.2       1 <0>         0.5294
     16 O2          7.3301    1.7049    1.2381 O.2       1 <0>        -0.5003
     17 N2          8.1807    3.4097    0.1012 N.am      1 <0>        -0.6683
     18 C12         9.4131    3.2892    0.7545 C.ar      1 <0>         0.1819
     19 C13        10.1323    4.4273    1.0960 C.ar      1 <0>        -0.1337
     20 C14        11.3474    4.3095    1.7406 C.ar      1 <0>        -0.0643
     21 C15        11.8516    3.0536    2.0481 C.ar      1 <0>         0.0717
     22 C16        11.1329    1.9135    1.7069 C.ar      1 <0>         0.1292
     23 C17         9.9136    2.0321    1.0661 C.ar      1 <0>        -0.1422
     24 F1         11.6234    0.6907    2.0056 F         1 <0>        -0.1210
     25 N3         13.0878    2.9344    2.7033 N.pl3     1 <0>        -0.4177
     26 C18        13.3499    2.1802    3.8172 C.2       1 <0>        -0.0442
     27 C19        14.6537    2.3530    4.1075 C.2       1 <0>        -0.0217
     28 N4         15.1775    3.1888    3.1989 N.2       1 <0>        -0.4833
     29 C20        14.2504    3.5399    2.3494 C.2       1 <0>         0.1908
     30 H2         -0.9534    1.8712   -0.0071 H         1 <0>         0.1390
     31 H3          1.1550    3.1409   -0.0160 H         1 <0>         0.1613
     32 H4          3.3538   -0.5263   -0.0652 H         1 <0>         0.1367
     33 H5         -0.9113   -0.5889   -0.0336 H         1 <0>         0.1360
     34 H6          5.1365    1.2154    1.0786 H         1 <0>         0.1058
     35 H7          4.9820    0.6261   -0.6033 H         1 <0>         0.0986
     36 H8          5.3909    4.2684    0.8679 H         1 <0>         0.1182
     37 H9          5.3001    4.6330   -0.8839 H         1 <0>         0.1229
     38 H10         8.0400    4.1226   -0.5413 H         1 <0>         0.4204
     39 H11         9.7408    5.4051    0.8568 H         1 <0>         0.1477
     40 H12        11.9061    5.1951    2.0054 H         1 <0>         0.1496
     41 H13         9.3524    1.1471    0.8046 H         1 <0>         0.1566
     42 H14        12.6461    1.5652    4.3584 H         1 <0>         0.1761
     43 H15        15.1852    1.8978    4.9301 H         1 <0>         0.1759
     44 H16        14.3851    4.2031    1.5077 H         1 <0>         0.2094
@<TRIPOS>BOND
     1    1    6 ar
     2    1    2 ar
     3    1   30 1
     4    2    3 ar
     5    2   31 1
     6    3    4 ar
     7    3    8 1
     8    4    5 ar
     9    4   32 1
    10    5    6 ar
    11    5    7 1
    12    6   33 1
    13    8   13 am
    14    8    9 1
    15    9   10 1
    16    9   34 1
    17    9   35 1
    18   10   11 1
    19   10   12 1
    20   10   15 1
    21   12   13 1
    22   12   36 1
    23   12   37 1
    24   13   14 2
    25   15   16 2
    26   15   17 am
    27   17   18 1
    28   17   38 1
    29   18   23 ar
    30   18   19 ar
    31   19   20 ar
    32   19   39 1
    33   20   21 ar
    34   20   40 1
    35   21   22 ar
    36   21   25 1
    37   22   23 ar
    38   22   24 1
    39   23   41 1
    40   25   29 1
    41   25   26 1
    42   26   27 2
    43   26   42 1
    44   27   28 1
    45   27   43 1
    46   28   29 2
    47   29   44 1
@<TRIPOS>MOLECULE
ZINC35761760
   35    37     0     0     0
SMALL
USER_CHARGES

@<TRIPOS>ATOM
      1 C1         -0.0184    1.5028    0.0103 C.3       1 <0>        -0.1416
      2 C2          0.0021   -0.0041    0.0020 C.ar      1 <0>        -0.0477
      3 C3          0.0055   -0.6738   -1.2000 C.ar      1 <0>        -0.0679
      4 C4          0.0226   -2.0554   -1.2367 C.ar      1 <0>        -0.0849
      5 C5          0.0276   -2.7579   -0.0445 C.ar      1 <0>         0.0471
      6 C6          0.0196   -2.0825    1.1533 C.ar      1 <0>        -0.5989
      7 C7          0.0230   -0.6981    1.2163 C.ar      1 <0>        -0.1357
      8 C8          0.0637   -0.0884    2.5964 C.3       1 <0>         0.0833
      9 H1         -0.5827    0.7890    2.6167 H         1 <0>         0.1747
     10 C9         -0.4079   -1.0871    3.6772 C.3       1 <0>        -0.6131
     11 S1          0.0017   -2.6679    2.8337 S.o2      1 <0>         2.4585
     12 O1          1.3375   -3.0565    3.1235 O.2       1 <0>        -0.9075
     13 O2         -1.0739   -3.5932    2.9110 O.2       1 <0>        -0.8893
     14 N1          1.4410    0.3248    2.8972 N.4       1 <0>        -0.4833
     15 C10         1.4708    1.0269    4.1872 C.3       1 <0>        -0.1011
     16 C11         1.8881    2.4989    4.1808 C.3       1 <0>        -0.1488
     17 C12         2.8385    1.4367    4.7370 C.3       1 <0>        -0.1486
     18 C13         0.0414   -4.2648   -0.0589 C.3       1 <0>        -0.1580
     19 H2          1.0042    1.8801    0.0026 H         1 <0>         0.0819
     20 H3         -0.5455    1.8639   -0.8728 H         1 <0>         0.0929
     21 H4         -0.5286    1.8543    0.9071 H         1 <0>         0.0725
     22 H5         -0.0056   -0.1145   -2.1238 H         1 <0>         0.1494
     23 H6          0.0316   -2.5786   -2.1814 H         1 <0>         0.1542
     24 H7          0.1556   -0.9672    4.6026 H         1 <0>         0.1721
     25 H8         -1.4803   -1.0048    3.8541 H         1 <0>         0.1900
     26 H9          2.0340   -0.4902    2.9441 H         1 <0>         0.4313
     27 H10         0.7101    0.7223    4.9060 H         1 <0>         0.1842
     28 H11         2.1405    2.9463    3.2195 H         1 <0>         0.1228
     29 H12         1.4019    3.1630    4.8955 H         1 <0>         0.1378
     30 H13         2.9775    1.4020    5.8176 H         1 <0>         0.1392
     31 H14         3.7162    1.1853    4.1416 H         1 <0>         0.1249
     32 H15         1.0723   -4.6187   -0.0611 H         1 <0>         0.0971
     33 H16        -0.4701   -4.6412    0.8270 H         1 <0>         0.0857
     34 H17        -0.4682   -4.6243   -0.9529 H         1 <0>         0.0947
     35 H18         1.7734    0.9413    2.1710 H         1 <0>         0.4324
@<TRIPOS>BOND
     1    1    2 1
     2    1   19 1
     3    1   20 1
     4    1   21 1
     5    2    7 ar
     6    2    3 ar
     7    3    4 ar
     8    3   22 1
     9    4    5 ar
    10    4   23 1
    11    5    6 ar
    12    5   18 1
    13    6   11 1
    14    6    7 ar
    15    7    8 1
    16    8    9 1
    17    8   10 1
    18    8   14 1
    19   10   11 1
    20   10   24 1
    21   10   25 1
    22   11   12 2
    23   11   13 2
    24   14   15 1
    25   14   26 1
    26   14   35 1
    27   15   17 1
    28   15   16 1
    29   15   27 1
    30   16   17 1
    31   16   28 1
    32   16   29 1
    33   17   30 1
    34   17   31 1
    35   18   32 1
    36   18   33 1
    37   18   34 1
@<TRIPOS>MOLECULE
ZINC41111645
   31    32     0     0     0
SMALL
USER_CHARGES

@<TRIPOS>ATOM
      1 C1          0.7047   -1.2583    0.9249 C.3       1 <0>         0.0185
      2 N1          0.3977   -0.1815   -0.0260 N.3       1 <0>        -0.6790
      3 C2          1.0525   -0.4187   -1.3194 C.3       1 <0>         0.1896
      4 H1          1.1308   -1.4915   -1.4956 H         1 <0>         0.1110
      5 C3          2.4312    0.1896   -1.3034 C.ar      1 <0>        -0.1252
      6 C4          2.7443    1.1671   -0.3773 C.ar      1 <0>        -0.0431
      7 C5          4.0081    1.7257   -0.3616 C.ar      1 <0>        -0.1493
      8 C6          4.9619    1.3063   -1.2739 C.ar      1 <0>         0.1430
      9 C7          4.6486    0.3273   -2.2009 C.ar      1 <0>        -0.1449
     10 C8          3.3846   -0.2346   -2.2118 C.ar      1 <0>         0.0037
     11 Cl1         2.9923   -1.4669   -3.3699 Cl        1 <0>        -0.0526
     12 F1          6.1974    1.8528   -1.2595 F         1 <0>        -0.1178
     13 C9          0.2375    0.2128   -2.4184 C.cat     1 <0>         0.2901
     14 N2         -0.3031   -0.4196   -3.4238 N.pl3     1 <0>        -0.4684
     15 C10        -0.9533    0.4591   -4.2011 C.2       1 <0>         0.0115
     16 C11        -0.8101    1.6825   -3.6567 C.2       1 <0>         0.0292
     17 N3         -0.0592    1.5261   -2.5229 N.pl3     1 <0>        -0.3828
     18 C12         0.3487    2.5858   -1.5973 C.3       1 <0>         0.0443
     19 H2          0.2782   -2.1942    0.5641 H         1 <0>         0.0409
     20 H3          1.7856   -1.3636    1.0179 H         1 <0>         0.0808
     21 H4          0.2782   -1.0160    1.8983 H         1 <0>         0.0937
     22 H5         -0.5990   -0.0730   -0.1398 H         1 <0>         0.3554
     23 H6          2.0007    1.4946    0.3341 H         1 <0>         0.1637
     24 H7          4.2520    2.4895    0.3619 H         1 <0>         0.1551
     25 H8          5.3916   -0.0002   -2.9130 H         1 <0>         0.1568
     26 H9         -1.4964    0.2264   -5.1051 H         1 <0>         0.2285
     27 H10        -1.2136    2.6085   -4.0390 H         1 <0>         0.2284
     28 H11         1.3242    2.9714   -1.8937 H         1 <0>         0.1096
     29 H12        -0.3839    3.3925   -1.6229 H         1 <0>         0.1214
     30 H13         0.4094    2.1820   -0.5867 H         1 <0>         0.1270
     31 H14        -0.2441   -1.3745   -3.5837 H         1 <0>         0.4612
@<TRIPOS>BOND
     1    1    2 1
     2    1   19 1
     3    1   20 1
     4    1   21 1
     5    2    3 1
     6    2   22 1
     7    3    4 1
     8    3    5 1
     9    3   13 1
    10    5   10 ar
    11    5    6 ar
    12    6    7 ar
    13    6   23 1
    14    7    8 ar
    15    7   24 1
    16    8    9 ar
    17    8   12 1
    18    9   10 ar
    19    9   25 1
    20   10   11 1
    21   13   17 1
    22   13   14 2
    23   14   15 1
    24   14   31 1
    25   15   16 2
    26   15   26 1
    27   16   17 1
    28   16   27 1
    29   17   18 1
    30   18   28 1
    31   18   29 1
    32   18   30 1
@<TRIPOS>MOLECULE
ZINC50153748
   38    39     0     0     0
SMALL
USER_CHARGES

@<TRIPOS>ATOM
      1 C1          0.7704   -0.4870    1.2339 C.3       1 <0>        -0.1521
      2 C2          0.0021   -0.0041    0.0020 C.3       1 <0>         0.0503
      3 H1         -0.0697    1.0834    0.0218 H         1 <0>         0.0806
      4 C3         -1.3825   -0.5991    0.0084 C.2       1 <0>         0.3973
      5 O1         -1.6136   -1.6040   -0.6304 O.2       1 <0>        -0.4146
      6 C4         -2.4516    0.0375    0.7878 C.ar      1 <0>        -0.2310
      7 C5         -2.1900    1.2010    1.5219 C.ar      1 <0>        -0.0180
      8 C6         -3.1968    1.7931    2.2500 C.ar      1 <0>        -0.1750
      9 C7         -4.4705    1.2407    2.2591 C.ar      1 <0>         0.1775
     10 C8         -4.7395    0.0899    1.5362 C.ar      1 <0>        -0.2060
     11 C9         -3.7410   -0.5130    0.7962 C.ar      1 <0>         0.1957
     12 F1         -4.0047   -1.6324    0.0872 F         1 <0>        -0.1051
     13 F2         -5.4527    1.8282    2.9770 F         1 <0>        -0.1157
     14 N1          0.7108   -0.4259   -1.2136 N.3       1 <0>        -0.5379
     15 C10         2.1267    0.0134   -1.1827 C.3       1 <0>         0.0357
     16 C11         2.9292   -0.8964   -2.0776 C.3       1 <0>        -0.1448
     17 C12         3.0499   -0.3587   -3.5125 C.3       1 <0>        -0.0076
     18 N2          1.7805    0.2114   -4.0171 N.4       1 <0>        -0.5059
     19 C13         0.6366   -0.5926   -3.6516 C.3       1 <0>        -0.0113
     20 C14         0.0253   -0.0157   -2.3612 C.3       1 <0>         0.0365
     21 H2          0.9735   -1.5538    1.1402 H         1 <0>         0.0805
     22 H3          1.7119    0.0567    1.3110 H         1 <0>         0.0771
     23 H4          0.1731   -0.3079    2.1279 H         1 <0>         0.0795
     24 H5         -1.2001    1.6328    1.5170 H         1 <0>         0.1509
     25 H6         -2.9952    2.6902    2.8165 H         1 <0>         0.1552
     26 H7         -5.7325   -0.3344    1.5481 H         1 <0>         0.1612
     27 H8          2.1997    1.0394   -1.5434 H         1 <0>         0.0472
     28 H9          2.5069   -0.0474   -0.1630 H         1 <0>         0.1139
     29 H10         3.9291   -1.0099   -1.6588 H         1 <0>         0.1152
     30 H11         2.4489   -1.8745   -2.1073 H         1 <0>         0.1042
     31 H12         3.8169    0.4154   -3.5350 H         1 <0>         0.1301
     32 H13         3.3555   -1.1733   -4.1692 H         1 <0>         0.1323
     33 H14         1.6639    1.1386   -3.6365 H         1 <0>         0.4211
     34 H15        -0.1026   -0.5629   -4.4521 H         1 <0>         0.1417
     35 H16         0.9524   -1.6215   -3.4790 H         1 <0>         0.1450
     36 H17        -1.0125   -0.3406   -2.2869 H         1 <0>         0.1199
     37 H18         0.0489    1.0726   -2.4158 H         1 <0>         0.0439
     38 H19         1.8275    0.2757   -5.0229 H         1 <0>         0.4323
@<TRIPOS>BOND
     1    1    2 1
     2    1   21 1
     3    1   22 1
     4    1   23 1
     5    2    3 1
     6    2    4 1
     7    2   14 1
     8    4    5 2
     9    4    6 1
    10    6   11 ar
    11    6    7 ar
    12    7    8 ar
    13    7   24 1
    14    8    9 ar
    15    8   25 1
    16    9   10 ar
    17    9   13 1
    18   10   11 ar
    19   10   26 1
    20   11   12 1
    21   14   20 1
    22   14   15 1
    23   15   16 1
    24   15   27 1
    25   15   28 1
    26   16   17 1
    27   16   29 1
    28   16   30 1
    29   17   18 1
    30   17   31 1
    31   17   32 1
    32   18   19 1
    33   18   33 1
    34   18   38 1
    35   19   20 1
    36   19   34 1
    37   19   35 1
    38   20   36 1
    39   20   37 1
@<TRIPOS>MOLECULE
ZINC55069768
   49    50     0     0     0
SMALL
USER_CHARGES

@<TRIPOS>ATOM
      1 C1         -0.5623   -2.5749   -1.0954 C.3       1 <0>        -0.1743
      2 C2         -1.3463   -2.0387    0.1040 C.3       1 <0>        -0.1491
      3 C3         -1.3186   -0.5090    0.0888 C.3       1 <0>         0.0251
      4 H1         -0.2849   -0.1647    0.0559 H         1 <0>         0.1375
      5 C4         -1.9944    0.0259    1.3530 C.3       1 <0>        -0.1837
      6 N1         -2.0362   -0.0180   -1.0952 N.4       1 <0>        -0.3836
      7 C5         -3.4602   -0.3598   -0.9810 C.3       1 <0>        -0.0110
      8 C6         -4.2049    0.1349   -2.2229 C.3       1 <0>         0.0193
      9 N2         -4.0407    1.5906   -2.3416 N.3       1 <0>        -0.5195
     10 C7         -2.6184    1.9499   -2.4318 C.3       1 <0>         0.0237
     11 C8         -1.8868    1.4402   -1.1881 C.3       1 <0>        -0.0048
     12 C9         -4.7896    2.1128   -3.4925 C.3       1 <0>         0.0934
     13 H2         -4.5640    3.1711   -3.6229 H         1 <0>         0.1056
     14 C10        -4.3863    1.3462   -4.7537 C.3       1 <0>        -0.1483
     15 C11        -5.1663    1.8900   -5.9523 C.3       1 <0>        -0.0896
     16 H3         -4.8789    1.3439   -6.8508 H         1 <0>         0.0782
     17 C12        -6.6662    1.7147   -5.7068 C.3       1 <0>        -0.1170
     18 C13        -7.0696    2.4813   -4.4456 C.3       1 <0>        -0.1582
     19 C14        -6.2896    1.9375   -3.2469 C.3       1 <0>         0.1176
     20 H4         -6.5152    0.8791   -3.1165 H         1 <0>         0.0521
     21 O1         -6.6663    2.6534   -2.0690 O.3       1 <0>        -0.5546
     22 C15        -4.8496    3.3756   -6.1354 C.3       1 <0>        -0.1569
     23 H5         -0.5018   -3.6615   -1.0336 H         1 <0>         0.0842
     24 H6         -1.0698   -2.2912   -2.0174 H         1 <0>         0.0498
     25 H7          0.4431   -2.1541   -1.0899 H         1 <0>         0.0715
     26 H8         -2.3786   -2.3840    0.0471 H         1 <0>         0.0873
     27 H9         -0.8922   -2.4012    1.0263 H         1 <0>         0.1122
     28 H10        -1.9746    1.1157    1.3421 H         1 <0>         0.0826
     29 H11        -3.0280   -0.3185    1.3859 H         1 <0>         0.0831
     30 H12        -1.4619   -0.3384    2.2315 H         1 <0>         0.1045
     31 H13        -3.5688   -1.4413   -0.8990 H         1 <0>         0.1337
     32 H14        -3.8778    0.1156   -0.0935 H         1 <0>         0.1422
     33 H15        -3.7965   -0.3506   -3.1093 H         1 <0>         0.0617
     34 H16        -5.2641   -0.1054   -2.1316 H         1 <0>         0.1214
     35 H17        -2.1840    1.4943   -3.3216 H         1 <0>         0.0600
     36 H18        -2.5203    3.0338   -2.4929 H         1 <0>         0.1230
     37 H19        -2.3125    1.9064   -0.2996 H         1 <0>         0.1400
     38 H20        -0.8290    1.6932   -1.2597 H         1 <0>         0.1340
     39 H21        -3.3177    1.4710   -4.9286 H         1 <0>         0.0701
     40 H22        -4.6119    0.2878   -4.6233 H         1 <0>         0.0690
     41 H23        -7.2219    2.1021   -6.5607 H         1 <0>         0.0740
     42 H24        -6.8918    0.6563   -5.5764 H         1 <0>         0.0643
     43 H25        -6.8440    3.5397   -4.5760 H         1 <0>         0.0795
     44 H26        -8.1382    2.3564   -4.2707 H         1 <0>         0.0733
     45 H27        -7.6062    2.5867   -1.8519 H         1 <0>         0.3812
     46 H28        -3.7810    3.5005   -6.3103 H         1 <0>         0.0552
     47 H29        -5.4053    3.7630   -6.9893 H         1 <0>         0.0624
     48 H30        -5.1370    3.9217   -5.2369 H         1 <0>         0.0609
     49 H31        -1.6528   -0.4487   -1.9232 H         1 <0>         0.4171
@<TRIPOS>BOND
     1    1    2 1
     2    1   23 1
     3    1   24 1
     4    1   25 1
     5    2    3 1
     6    2   26 1
     7    2   27 1
     8    3    4 1
     9    3    5 1
    10    3    6 1
    11    5   28 1
    12    5   29 1
    13    5   30 1
    14    6   11 1
    15    6    7 1
    16    6   49 1
    17    7    8 1
    18    7   31 1
    19    7   32 1
    20    8    9 1
    21    8   33 1
    22    8   34 1
    23    9   10 1
    24    9   12 1
    25   10   11 1
    26   10   35 1
    27   10   36 1
    28   11   37 1
    29   11   38 1
    30   12   13 1
    31   12   19 1
    32   12   14 1
    33   14   15 1
    34   14   39 1
    35   14   40 1
    36   15   16 1
    37   15   17 1
    38   15   22 1
    39   17   18 1
    40   17   41 1
    41   17   42 1
    42   18   19 1
    43   18   43 1
    44   18   44 1
    45   19   20 1
    46   19   21 1
    47   21   45 1
    48   22   46 1
    49   22   47 1
    50   22   48 1
@<TRIPOS>MOLECULE
ZINC62860488
   48    50     0     0     0
SMALL
USER_CHARGES

@<TRIPOS>ATOM
      1 C1         -1.7371   -0.1570   -0.3611 C.3       1 <0>        -0.1569
      2 C2         -0.2473    0.0537   -0.0838 C.3       1 <0>        -0.0935
      3 C3          0.1239   -0.6083    1.2464 C.3       1 <0>        -0.1097
      4 C4          1.5974   -0.3250    1.5526 C.3       1 <0>        -0.1627
      5 C5          1.8266    1.1878    1.5738 C.3       1 <0>        -0.0081
      6 N1          1.4787    1.7574    0.2665 N.4       1 <0>        -0.5066
      7 C6          0.0503    1.5524   -0.0019 C.3       1 <0>        -0.0081
      8 C7          0.5633   -0.5603   -1.1959 C.2       1 <0>         0.5122
      9 O1          1.4751   -1.3165   -0.9356 O.2       1 <0>        -0.5125
     10 N2          0.2751   -0.2692   -2.4799 N.am      1 <0>        -0.6029
     11 C8         -0.7387    0.6999   -2.9344 C.3       1 <0>         0.0843
     12 C9         -0.2751    1.1241   -4.3503 C.3       1 <0>        -0.1367
     13 C10         0.2891   -0.2101   -4.9061 C.3       1 <0>        -0.1367
     14 C11         0.9240   -0.8607   -3.6591 C.3       1 <0>         0.1437
     15 H1          1.9941   -0.6550   -3.6356 H         1 <0>         0.0820
     16 C12         0.6819   -2.3712   -3.6834 C.3       1 <0>        -0.1030
     17 C13        -0.8342   -2.6759   -3.7706 C.3       1 <0>        -0.1171
     18 C14        -0.8623   -4.0984   -4.3826 C.3       1 <0>        -0.1269
     19 C15         0.2850   -4.0894   -5.4138 C.3       1 <0>        -0.1261
     20 C16         1.2669   -2.9911   -4.9692 C.3       1 <0>        -0.1196
     21 H2         -2.0329    0.4354   -1.2269 H         1 <0>         0.0811
     22 H3         -1.9237   -1.2120   -0.5618 H         1 <0>         0.0823
     23 H4         -2.3162    0.1554    0.5079 H         1 <0>         0.0836
     24 H5         -0.4988   -0.2005    2.0427 H         1 <0>         0.0898
     25 H6         -0.0330   -1.6845    1.1742 H         1 <0>         0.0988
     26 H7          1.8546   -0.7457    2.5247 H         1 <0>         0.1127
     27 H8          2.2226   -0.7771    0.7826 H         1 <0>         0.1170
     28 H9          1.2012    1.6388    2.3442 H         1 <0>         0.1314
     29 H10         2.8747    1.3930    1.7917 H         1 <0>         0.1344
     30 H11         1.6814    2.7458    0.2667 H         1 <0>         0.4332
     31 H12        -0.2131    2.0268   -0.9473 H         1 <0>         0.1378
     32 H13        -0.5373    1.9957    0.8021 H         1 <0>         0.1472
     33 H14        -1.7201    0.2279   -2.9822 H         1 <0>         0.0867
     34 H15        -0.7639    1.5628   -2.2690 H         1 <0>         0.0747
     35 H16        -1.1168    1.4720   -4.9491 H         1 <0>         0.0940
     36 H17         0.5038    1.8847   -4.2948 H         1 <0>         0.0782
     37 H18        -0.5129   -0.8319   -5.3040 H         1 <0>         0.0929
     38 H19         1.0460   -0.0213   -5.6674 H         1 <0>         0.0893
     39 H20         1.1173   -2.8406   -2.8013 H         1 <0>         0.0855
     40 H21        -1.2864   -2.6731   -2.7788 H         1 <0>         0.0572
     41 H22        -1.3344   -1.9633   -4.4264 H         1 <0>         0.0721
     42 H23        -0.6780   -4.8484   -3.6134 H         1 <0>         0.0651
     43 H24        -1.8168   -4.2828   -4.8756 H         1 <0>         0.0676
     44 H25         0.7865   -5.0571   -5.4229 H         1 <0>         0.0660
     45 H26        -0.1059   -3.8615   -6.4054 H         1 <0>         0.0662
     46 H27         1.3524   -2.2304   -5.7451 H         1 <0>         0.0685
     47 H28         2.2448   -3.4259   -4.7626 H         1 <0>         0.0659
     48 H29         2.0233    1.3046   -0.4522 H         1 <0>         0.4256
@<TRIPOS>BOND
     1    1    2 1
     2    1   21 1
     3    1   22 1
     4    1   23 1
     5    2    7 1
     6    2    3 1
     7    2    8 1
     8    3    4 1
     9    3   24 1
    10    3   25 1
    11    4    5 1
    12    4   26 1
    13    4   27 1
    14    5    6 1
    15    5   28 1
    16    5   29 1
    17    6    7 1
    18    6   30 1
    19    6   48 1
    20    7   31 1
    21    7   32 1
    22    8    9 2
    23    8   10 am
    24   10   14 1
    25   10   11 1
    26   11   12 1
    27   11   33 1
    28   11   34 1
    29   12   13 1
    30   12   35 1
    31   12   36 1
    32   13   14 1
    33   13   37 1
    34   13   38 1
    35   14   15 1
    36   14   16 1
    37   16   20 1
    38   16   17 1
    39   16   39 1
    40   17   18 1
    41   17   40 1
    42   17   41 1
    43   18   19 1
    44   18   42 1
    45   18   43 1
    46   19   20 1
    47   19   44 1
    48   19   45 1
    49   20   46 1
    50   20   47 1
@<TRIPOS>MOLECULE
ZINC04900765
   46    48     0     0     0
SMALL
USER_CHARGES
1-(5-methyl-2-thienyl)-N-[4-(p-tolylmethyl)piperazin-1-yl]methanimine
@<TRIPOS>ATOM
      1 C1          1.1651    3.6036   -0.0162 C.3       1 <0>        -0.1319
      2 C2          1.1770    2.0966   -0.0174 C.ar      1 <0>        -0.0427
      3 C3         -0.0146    1.3960   -0.0159 C.ar      1 <0>        -0.1172
      4 C4         -0.0037    0.0137   -0.0174 C.ar      1 <0>        -0.0911
      5 C5          1.1989   -0.6680   -0.0206 C.ar      1 <0>        -0.1729
      6 C6          2.3906    0.0327   -0.0226 C.ar      1 <0>        -0.0877
      7 C7          2.3796    1.4150   -0.0220 C.ar      1 <0>        -0.1171
      8 C8          1.2109   -2.1749   -0.0213 C.3       1 <0>         0.0507
      9 C9         -0.0428   -2.3169   -2.0878 C.3       1 <0>        -0.0238
     10 C10         0.0684   -2.6811   -3.5722 C.3       1 <0>         0.1408
     11 N1          0.4635   -4.0938   -3.6783 N.pl3     1 <0>        -0.5570
     12 C11         1.6338   -4.5485   -2.9122 C.3       1 <0>         0.0700
     13 C12         1.4610   -4.1108   -1.4539 C.3       1 <0>        -0.0132
     14 N2         -0.2555   -4.9827   -4.4880 N.2       1 <0>        -0.2241
     15 C13         0.1703   -6.1993   -4.6549 C.2       1 <0>         0.1392
     16 C14        -0.5218   -7.0978   -5.5869 C.2       1 <0>        -0.1511
     17 C15        -0.2346   -8.4126   -5.9062 C.2       1 <0>        -0.1010
     18 C16        -1.0390   -9.0542   -6.8210 C.2       1 <0>        -0.1759
     19 C17        -2.0801   -8.3828   -7.3765 C.2       1 <0>        -0.1213
     20 S1         -1.9587   -6.7810   -6.5982 S.3       1 <0>         0.0980
     21 C18        -3.0865   -8.8686   -8.3875 C.3       1 <0>        -0.0802
     22 H1          1.1640    3.9661    1.0118 H         1 <0>         0.0838
     23 H2          2.0513    3.9744   -0.5312 H         1 <0>         0.0762
     24 H3          0.2714    3.9603   -0.5281 H         1 <0>         0.0763
     25 H4         -0.9542    1.9286   -0.0180 H         1 <0>         0.1360
     26 H5         -0.9347   -0.5337   -0.0159 H         1 <0>         0.1310
     27 H6          3.3301   -0.4999   -0.0243 H         1 <0>         0.1310
     28 H7          3.3106    1.9623   -0.0232 H         1 <0>         0.1358
     29 H8          2.1049   -2.5314    0.4903 H         1 <0>         0.1352
     30 H9          0.3250   -2.5455    0.4945 H         1 <0>         0.1357
     31 H10        -0.8665   -2.8713   -1.6381 H         1 <0>         0.1341
     32 H11        -0.2267   -1.2471   -1.9886 H         1 <0>         0.1409
     33 H12         0.8220   -2.0534   -4.0477 H         1 <0>         0.0862
     34 H13        -0.8940   -2.5323   -4.0618 H         1 <0>         0.1288
     35 H14         2.5379   -4.1003   -3.3243 H         1 <0>         0.0897
     36 H15         1.7082   -5.6348   -2.9621 H         1 <0>         0.1203
     37 H16         2.3677   -4.3421   -0.8948 H         1 <0>         0.1391
     38 H17         0.6165   -4.6402   -1.0125 H         1 <0>         0.1330
     39 H18         1.0333   -6.5492   -4.1079 H         1 <0>         0.1318
     40 H19         0.5999   -8.9235   -5.4490 H         1 <0>         0.1388
     41 H20        -0.8437  -10.0807   -7.0940 H         1 <0>         0.1406
     42 H21        -3.9410   -9.3039   -7.8693 H         1 <0>         0.0856
     43 H22        -3.4208   -8.0305   -8.9990 H         1 <0>         0.0782
     44 H23        -2.6257   -9.6228   -9.0254 H         1 <0>         0.0872
     45 N3          1.2345   -2.6495   -1.4204 N.4       1 <0>        -0.3918
     46 H24         2.0015   -2.1824   -1.9180 H         1 <0>         0.4260
@<TRIPOS>BOND
     1    1    2 1
     2    1   22 1
     3    1   23 1
     4    1   24 1
     5    2    7 ar
     6    2    3 ar
     7    3    4 ar
     8    3   25 1
     9    4    5 ar
    10    4   26 1
    11    5    6 ar
    12    5    8 1
    13    6    7 ar
    14    6   27 1
    15    7   28 1
    16    8   29 1
    17    8   30 1
    18    8   45 1
    19    9   10 1
    20    9   31 1
    21    9   32 1
    22    9   45 1
    23   10   11 1
    24   10   33 1
    25   10   34 1
    26   11   12 1
    27   11   14 1
    28   12   13 1
    29   12   35 1
    30   12   36 1
    31   13   37 1
    32   13   38 1
    33   13   45 1
    34   14   15 2
    35   15   16 1
    36   15   39 1
    37   16   20 1
    38   16   17 2
    39   17   18 1
    40   17   40 1
    41   18   19 2
    42   18   41 1
    43   19   20 1
    44   19   21 1
    45   21   42 1
    46   21   43 1
    47   21   44 1
    48   45   46 1
@<TRIPOS>MOLECULE
ZINC42801741
   40    40     0     0     0
SMALL
USER_CHARGES

@<TRIPOS>ATOM
      1 C1         -0.0808    1.5460    0.0913 C.3       1 <0>        -0.1503
      2 C2         -0.0326    0.0176    0.0401 C.3       1 <0>        -0.1180
      3 C3          0.7321   -0.5096    1.2559 C.3       1 <0>        -0.1457
      4 C4         -1.4580   -0.5383    0.0537 C.3       1 <0>         0.1463
      5 N1         -1.4164   -1.9929   -0.1155 N.pl3     1 <0>        -0.6410
      6 C5         -1.3273   -2.8646    1.0585 C.3       1 <0>         0.1208
      7 C6         -2.7309   -3.1214    1.6108 C.3       1 <0>        -0.0488
      8 N2         -2.6415   -3.9955    2.7881 N.4       1 <0>        -0.3838
      9 C7         -1.9227   -3.2978    3.8626 C.3       1 <0>        -0.0533
     10 C8         -3.9941   -4.3391    3.2466 C.3       1 <0>        -0.0465
     11 C9         -1.4616   -2.5461   -1.3904 C.ar      1 <0>         0.3871
     12 C10        -2.6903   -2.7386   -2.0159 C.ar      1 <0>        -0.1509
     13 C11        -2.7200   -3.2897   -3.2847 C.ar      1 <0>        -0.0381
     14 C12        -1.5161   -3.6309   -3.8873 C.ar      1 <0>        -0.1603
     15 C13        -0.3344   -3.4123   -3.2087 C.ar      1 <0>         0.1313
     16 N3         -0.3355   -2.8802   -2.0008 N.ar      1 <0>        -0.4771
     17 Br1        -4.2965   -2.2541   -1.1433 Br        1 <0>        -0.0307
     18 H1          0.9347    1.9421    0.0816 H         1 <0>         0.0616
     19 H2         -0.6255    1.9216   -0.7749 H         1 <0>         0.0565
     20 H3         -0.5858    1.8632    1.0037 H         1 <0>         0.0560
     21 H4          0.4724   -0.2996   -0.8723 H         1 <0>         0.0781
     22 H5          0.2271   -0.1924    2.1683 H         1 <0>         0.0498
     23 H6          0.7664   -1.5984    1.2194 H         1 <0>         0.0548
     24 H7          1.7475   -0.1135    1.2462 H         1 <0>         0.0587
     25 H8         -1.9332   -0.2965    1.0043 H         1 <0>         0.0758
     26 H9         -2.0291   -0.0939   -0.7615 H         1 <0>         0.0750
     27 H10        -0.8700   -3.8122    0.7737 H         1 <0>         0.0885
     28 H11        -0.7184   -2.3828    1.8235 H         1 <0>         0.0990
     29 H12        -3.1882   -2.1739    1.8957 H         1 <0>         0.1326
     30 H13        -3.3398   -3.6032    0.8459 H         1 <0>         0.1309
     31 H14        -2.4593   -2.3865    4.1265 H         1 <0>         0.1231
     32 H15        -1.8564   -3.9464    4.7361 H         1 <0>         0.1260
     33 H16        -0.9190   -3.0428    3.5223 H         1 <0>         0.1235
     34 H17        -4.5275   -4.8568    2.4493 H         1 <0>         0.1221
     35 H18        -3.9278   -4.9877    4.1201 H         1 <0>         0.1258
     36 H19        -4.5307   -3.4278    3.5106 H         1 <0>         0.1217
     37 H20        -3.6582   -3.4512   -3.7948 H         1 <0>         0.1504
     38 H21        -1.5048   -4.0634   -4.8769 H         1 <0>         0.1526
     39 H22         0.6038   -3.6762   -3.6739 H         1 <0>         0.1704
     40 H23        -2.1448   -4.8391    2.5437 H         1 <0>         0.4261
@<TRIPOS>BOND
     1    1    2 1
     2    1   18 1
     3    1   19 1
     4    1   20 1
     5    2    3 1
     6    2    4 1
     7    2   21 1
     8    3   22 1
     9    3   23 1
    10    3   24 1
    11    4    5 1
    12    4   25 1
    13    4   26 1
    14    5    6 1
    15    5   11 1
    16    6    7 1
    17    6   27 1
    18    6   28 1
    19    7    8 1
    20    7   29 1
    21    7   30 1
    22    8    9 1
    23    8   10 1
    24    8   40 1
    25    9   31 1
    26    9   32 1
    27    9   33 1
    28   10   34 1
    29   10   35 1
    30   10   36 1
    31   11   16 ar
    32   11   12 ar
    33   12   13 ar
    34   12   17 1
    35   13   14 ar
    36   13   37 1
    37   14   15 ar
    38   14   38 1
    39   15   16 ar
    40   15   39 1
@<TRIPOS>MOLECULE
ZINC53403150
   40    42     0     0     0
SMALL
USER_CHARGES

@<TRIPOS>ATOM
      1 C1         -0.0178    1.4648    0.0101 C.3       1 <0>        -0.0570
      2 N1          0.0021   -0.0041    0.0020 N.4       1 <0>        -0.3841
      3 C2          0.6897   -0.4778   -1.2066 C.3       1 <0>         0.0450
      4 C3         -0.1057   -0.0832   -2.4243 C.ar      1 <0>        -0.1594
      5 C4         -1.0787   -0.9315   -2.9187 C.ar      1 <0>        -0.0780
      6 C5         -1.8085   -0.5702   -4.0355 C.ar      1 <0>        -0.1065
      7 C6         -1.5650    0.6409   -4.6586 C.ar      1 <0>        -0.0068
      8 C7         -0.5910    1.4895   -4.1633 C.ar      1 <0>        -0.1076
      9 C8          0.1343    1.1295   -3.0431 C.ar      1 <0>        -0.0822
     10 Cl1        -2.4807    1.0952   -6.0617 Cl        1 <0>        -0.0380
     11 C9          0.7126   -0.4907    1.1921 C.3       1 <0>         0.0550
     12 C10        -0.0593   -0.1093    2.4290 C.ar      1 <0>        -0.1560
     13 C11         0.3239    0.9919    3.1697 C.ar      1 <0>        -0.0949
     14 C12        -0.3844    1.3423    4.3063 C.ar      1 <0>         0.0860
     15 C13        -1.4764    0.5888    4.7020 C.ar      1 <0>        -0.0791
     16 C14        -1.8618   -0.5138    3.9630 C.ar      1 <0>        -0.1621
     17 C15        -1.1583   -0.8611    2.8201 C.ar      1 <0>         0.1460
     18 O1         -1.5358   -1.9355    2.0762 O.3       1 <0>        -0.3397
     19 C16        -2.4219   -2.8718    2.6961 C.3       1 <0>         0.2200
     20 O2         -3.4926   -2.1481    3.3143 O.3       1 <0>        -0.3720
     21 C17        -3.0502   -1.3296    4.4055 C.3       1 <0>         0.0921
     22 F1         -0.0096    2.4197    5.0301 F         1 <0>        -0.1222
     23 H1          1.0047    1.8421    0.0024 H         1 <0>         0.1251
     24 H2         -0.5450    1.8259   -0.8730 H         1 <0>         0.1247
     25 H3         -0.5280    1.8163    0.9069 H         1 <0>         0.1214
     26 H4          1.6817   -0.0294   -1.2596 H         1 <0>         0.1394
     27 H5          0.7830   -1.5632   -1.1697 H         1 <0>         0.1401
     28 H6         -1.2685   -1.8770   -2.4325 H         1 <0>         0.1418
     29 H7         -2.5684   -1.2332   -4.4219 H         1 <0>         0.1472
     30 H8         -0.4002    2.4348   -4.6494 H         1 <0>         0.1472
     31 H9          0.8913    1.7940   -2.6535 H         1 <0>         0.1415
     32 H10         0.8051   -1.5756    1.1418 H         1 <0>         0.1430
     33 H11         1.7055   -0.0428    1.2310 H         1 <0>         0.1412
     34 H12         1.1764    1.5794    2.8623 H         1 <0>         0.1555
     35 H13        -2.0276    0.8627    5.5894 H         1 <0>         0.1563
     36 H14        -2.8248   -3.5484    1.9424 H         1 <0>         0.1543
     37 H15        -1.8814   -3.4419    3.4517 H         1 <0>         0.0764
     38 H16        -2.7673   -1.9548    5.2524 H         1 <0>         0.0912
     39 H17        -3.8603   -0.6624    4.6997 H         1 <0>         0.1279
     40 H18        -0.9445   -0.3533    0.0092 H         1 <0>         0.4271
@<TRIPOS>BOND
     1    1    2 1
     2    1   23 1
     3    1   24 1
     4    1   25 1
     5    2    3 1
     6    2   11 1
     7    2   40 1
     8    3    4 1
     9    3   26 1
    10    3   27 1
    11    4    9 ar
    12    4    5 ar
    13    5    6 ar
    14    5   28 1
    15    6    7 ar
    16    6   29 1
    17    7    8 ar
    18    7   10 1
    19    8    9 ar
    20    8   30 1
    21    9   31 1
    22   11   12 1
    23   11   32 1
    24   11   33 1
    25   12   17 ar
    26   12   13 ar
    27   13   14 ar
    28   13   34 1
    29   14   15 ar
    30   14   22 1
    31   15   16 ar
    32   15   35 1
    33   16   21 1
    34   16   17 ar
    35   17   18 1
    36   18   19 1
    37   19   20 1
    38   19   36 1
    39   19   37 1
    40   20   21 1
    41   21   38 1
    42   21   39 1
@<TRIPOS>MOLECULE
ZINC61934015
   40    41     0     0     0
SMALL
USER_CHARGES

@<TRIPOS>ATOM
      1 C1         -0.1037    1.5734    0.2107 C.3       1 <0>        -0.1600
      2 C2         -0.0501    0.0485    0.0979 C.3       1 <0>         0.0704
      3 H1          0.4456   -0.2129   -0.8370 H         1 <0>         0.0818
      4 C3         -1.4930   -0.4929    0.0578 C.3       1 <0>        -0.0364
      5 N1         -1.5549   -1.9453    0.3578 N.4       1 <0>        -0.3790
      6 C4         -0.4899   -2.6836   -0.2701 C.3       1 <0>        -0.0200
      7 C5          0.6587   -2.8094    0.7442 C.3       1 <0>        -0.1778
      8 C6          1.4972   -1.6136    0.7918 C.3       1 <0>         0.0383
      9 O1          0.7101   -0.4515    1.1614 O.3       1 <0>        -0.3598
     10 C7         -2.8419   -2.4736   -0.1139 C.3       1 <0>        -0.0051
     11 C8         -3.9779   -1.8516    0.7006 C.3       1 <0>        -0.1995
     12 C9         -5.2861   -2.4860    0.3041 C.2       1 <0>         0.4109
     13 O2         -5.3077   -3.3504   -0.5461 O.2       1 <0>        -0.4364
     14 C10        -6.5369   -2.0567    0.9485 C.ar      1 <0>        -0.1717
     15 C11        -6.5166   -1.0558    1.9255 C.ar      1 <0>        -0.0684
     16 C12        -7.6926   -0.6584    2.5246 C.ar      1 <0>        -0.1027
     17 C13        -8.8925   -1.2478    2.1616 C.ar      1 <0>        -0.0529
     18 C14        -8.9204   -2.2396    1.1948 C.ar      1 <0>        -0.0998
     19 C15        -7.7531   -2.6433    0.5830 C.ar      1 <0>        -0.0459
     20 Br1       -10.5003   -0.6964    2.9903 Br        1 <0>        -0.0216
     21 H2          0.9099    1.9742    0.2029 H         1 <0>         0.0849
     22 H3         -0.6620    1.9806   -0.6322 H         1 <0>         0.0810
     23 H4         -0.5973    1.8517    1.1419 H         1 <0>         0.0752
     24 H5         -2.0934    0.0457    0.7909 H         1 <0>         0.1357
     25 H6         -1.9088   -0.3186   -0.9345 H         1 <0>         0.1376
     26 H7         -0.8442   -3.6754   -0.5511 H         1 <0>         0.1411
     27 H8         -0.1434   -2.1504   -1.1554 H         1 <0>         0.1319
     28 H9          0.2372   -2.9841    1.7341 H         1 <0>         0.0955
     29 H10         1.2782   -3.6637    0.4712 H         1 <0>         0.1257
     30 H11         2.2890   -1.7594    1.5266 H         1 <0>         0.1206
     31 H12         1.9441   -1.4493   -0.1887 H         1 <0>         0.0760
     32 H13        -2.9722   -2.2258   -1.1673 H         1 <0>         0.1383
     33 H14        -2.8572   -3.5565    0.0092 H         1 <0>         0.1411
     34 H15        -3.7989   -2.0213    1.7624 H         1 <0>         0.1247
     35 H16        -4.0200   -0.7800    0.5060 H         1 <0>         0.1250
     36 H17        -5.5818   -0.5958    2.2100 H         1 <0>         0.1383
     37 H18        -7.6785    0.1143    3.2791 H         1 <0>         0.1452
     38 H19        -9.8595   -2.6949    0.9171 H         1 <0>         0.1467
     39 H20        -7.7769   -3.4135   -0.1738 H         1 <0>         0.1467
     40 H21        -1.4972   -2.0751    1.3568 H         1 <0>         0.4246
@<TRIPOS>BOND
     1    1    2 1
     2    1   21 1
     3    1   22 1
     4    1   23 1
     5    2    3 1
     6    2    9 1
     7    2    4 1
     8    4    5 1
     9    4   24 1
    10    4   25 1
    11    5    6 1
    12    5   10 1
    13    5   40 1
    14    6    7 1
    15    6   26 1
    16    6   27 1
    17    7    8 1
    18    7   28 1
    19    7   29 1
    20    8    9 1
    21    8   30 1
    22    8   31 1
    23   10   11 1
    24   10   32 1
    25   10   33 1
    26   11   12 1
    27   11   34 1
    28   11   35 1
    29   12   13 2
    30   12   14 1
    31   14   19 ar
    32   14   15 ar
    33   15   16 ar
    34   15   36 1
    35   16   17 ar
    36   16   37 1
    37   17   18 ar
    38   17   20 1
    39   18   19 ar
    40   18   38 1
    41   19   39 1
@<TRIPOS>MOLECULE
ZINC66864104
   37    39     0     0     0
SMALL
USER_CHARGES

@<TRIPOS>ATOM
      1 C1         -0.0178    1.4648    0.0101 C.3       1 <0>         0.0099
      2 N1          0.0021   -0.0041    0.0020 N.3       1 <0>        -0.5269
      3 C2          0.7062   -0.5275    1.1802 C.3       1 <0>         0.0904
      4 C3         -0.0734   -0.1864    2.4240 C.ar      1 <0>        -0.0663
      5 C4          0.3040    0.8919    3.2024 C.ar      1 <0>        -0.1077
      6 C5         -0.4113    1.2052    4.3429 C.ar      1 <0>        -0.1027
      7 C6         -1.5045    0.4404    4.7058 C.ar      1 <0>        -0.1048
      8 C7         -1.8825   -0.6377    3.9282 C.ar      1 <0>        -0.0919
      9 C8         -1.1700   -0.9485    2.7837 C.ar      1 <0>        -0.0672
     10 Br1        -1.6910   -2.4193    1.7154 Br        1 <0>        -0.0438
     11 C9          0.5996   -0.5156   -1.2387 C.3       1 <0>         0.1064
     12 C10        -0.2863   -0.1627   -2.4056 C.2       1 <0>         0.1047
     13 C11        -1.2345   -0.9599   -2.9447 C.2       1 <0>        -0.0025
     14 N2         -1.8059   -0.2671   -3.9771 N.pl3     1 <0>        -0.3260
     15 C12        -2.8003   -0.5776   -4.8589 C.2       1 <0>         0.0881
     16 C13        -3.1826    0.3075   -5.8032 C.2       1 <0>        -0.1142
     17 C14        -2.5595    1.5634   -5.8910 C.2       1 <0>        -0.0172
     18 C15        -1.5670    1.8857   -5.0185 C.2       1 <0>        -0.1257
     19 C16        -1.1795    0.9507   -4.0377 C.cat     1 <0>         0.3050
     20 N3         -0.2689    0.9922   -3.0753 N.pl3     1 <0>        -0.5063
     21 H1          1.0047    1.8421    0.0024 H         1 <0>         0.0396
     22 H2         -0.5450    1.8259   -0.8730 H         1 <0>         0.0552
     23 H3         -0.5280    1.8163    0.9069 H         1 <0>         0.0873
     24 H4          0.8004   -1.6101    1.0960 H         1 <0>         0.1008
     25 H5          1.6983   -0.0800    1.2392 H         1 <0>         0.0596
     26 H6          1.1580    1.4894    2.9196 H         1 <0>         0.1290
     27 H7         -0.1159    2.0474    4.9510 H         1 <0>         0.1328
     28 H8         -2.0628    0.6853    5.5972 H         1 <0>         0.1355
     29 H9         -2.7364   -1.2351    4.2117 H         1 <0>         0.1357
     30 H10         1.5829   -0.0671   -1.3803 H         1 <0>         0.0738
     31 H11         0.7003   -1.5990   -1.1736 H         1 <0>         0.1269
     32 H12        -1.4929   -1.9575   -2.6216 H         1 <0>         0.2265
     33 H13        -3.2855   -1.5407   -4.8006 H         1 <0>         0.2009
     34 H14        -3.9709    0.0490   -6.4946 H         1 <0>         0.1835
     35 H15        -2.8668    2.2697   -6.6481 H         1 <0>         0.1751
     36 H16        -1.0807    2.8483   -5.0769 H         1 <0>         0.1782
     37 H17         0.3182    1.7415   -2.8888 H         1 <0>         0.4584
@<TRIPOS>BOND
     1    1    2 1
     2    1   21 1
     3    1   22 1
     4    1   23 1
     5    2    3 1
     6    2   11 1
     7    3    4 1
     8    3   24 1
     9    3   25 1
    10    4    9 ar
    11    4    5 ar
    12    5    6 ar
    13    5   26 1
    14    6    7 ar
    15    6   27 1
    16    7    8 ar
    17    7   28 1
    18    8    9 ar
    19    8   29 1
    20    9   10 1
    21   11   12 1
    22   11   30 1
    23   11   31 1
    24   12   20 1
    25   12   13 2
    26   13   14 1
    27   13   32 1
    28   14   19 1
    29   14   15 1
    30   15   16 2
    31   15   33 1
    32   16   17 1
    33   16   34 1
    34   17   18 2
    35   17   35 1
    36   18   19 1
    37   18   36 1
    38   19   20 2
    39   20   37 1
@<TRIPOS>MOLECULE
ZINC04980479
   54    56     0     0     0
SMALL
USER_CHARGES
1-[(2-allyloxyphenyl)methyl]-4-(2,5-dimethylphenyl)-piperazine
@<TRIPOS>ATOM
      1 C1         -2.5609    3.8633    0.0473 C.3       1 <0>        -0.1203
      2 C2         -1.2429    3.1328    0.0308 C.ar      1 <0>        -0.0773
      3 C3         -1.2197    1.7500    0.0174 C.ar      1 <0>        -0.1035
      4 C4         -0.0126    1.0758    0.0080 C.ar      1 <0>        -0.1089
      5 C5          1.1746    1.7819    0.0004 C.ar      1 <0>        -0.0544
      6 C6          1.1548    3.1706    0.0081 C.ar      1 <0>         0.0634
      7 C7         -0.0598    3.8449    0.0233 C.ar      1 <0>        -0.1432
      8 N1          2.3534    3.8877    0.0009 N.pl3     1 <0>        -0.4904
      9 C8          2.5056    4.6713    1.2348 C.3       1 <0>         0.0296
     10 C9          3.8633    5.3776    1.2231 C.3       1 <0>         0.0037
     11 C10         3.8000    5.4595   -1.1951 C.3       1 <0>         0.0030
     12 C11         2.4423    4.7532   -1.1834 C.3       1 <0>         0.0299
     13 C12         5.2128    6.9973    0.0313 C.3       1 <0>         0.0612
     14 C13         5.2236    7.9691    1.1830 C.ar      1 <0>        -0.1950
     15 C14         4.9283    9.3013    0.9663 C.ar      1 <0>        -0.0532
     16 C15         4.9333   10.1924    2.0232 C.ar      1 <0>        -0.1491
     17 C16         5.2441    9.7552    3.2978 C.ar      1 <0>        -0.0439
     18 C17         5.5451    8.4254    3.5188 C.ar      1 <0>        -0.2032
     19 C18         5.5356    7.5280    2.4605 C.ar      1 <0>         0.1499
     20 O1          5.8319    6.2192    2.6753 O.3       1 <0>        -0.3181
     21 C19         6.1436    5.8362    4.0162 C.3       1 <0>         0.0857
     22 C20         6.4430    4.3599    4.0603 C.2       1 <0>        -0.1792
     23 C21         7.4779    3.9212    4.7330 C.2       1 <0>        -0.1457
     24 C22         2.4897    1.0462   -0.0166 C.3       1 <0>        -0.1086
     25 H1         -2.8885    4.0450   -0.9764 H         1 <0>         0.0747
     26 H2         -3.3052    3.2583    0.5650 H         1 <0>         0.0726
     27 H3         -2.4424    4.8151    0.5651 H         1 <0>         0.0654
     28 H4         -2.1465    1.1955    0.0184 H         1 <0>         0.1293
     29 H5          0.0021   -0.0041    0.0020 H         1 <0>         0.1319
     30 H6         -0.0787    4.9247    0.0289 H         1 <0>         0.1159
     31 H7          1.7099    5.4139    1.2946 H         1 <0>         0.0596
     32 H8          2.4488    4.0068    2.0969 H         1 <0>         0.1202
     33 H9          4.6598    4.6342    1.1909 H         1 <0>         0.1406
     34 H10         3.9663    5.9825    2.1241 H         1 <0>         0.1377
     35 H11         4.5957    4.7170   -1.2549 H         1 <0>         0.1397
     36 H12         3.8569    6.1237   -2.0575 H         1 <0>         0.1345
     37 H13         2.3393    4.1483   -2.0844 H         1 <0>         0.1234
     38 H14         1.6458    5.4966   -1.1512 H         1 <0>         0.0621
     39 H15         6.0501    6.3065    0.1309 H         1 <0>         0.1386
     40 H16         5.3031    7.5448   -0.9069 H         1 <0>         0.1343
     41 H17         4.6893    9.6461   -0.0289 H         1 <0>         0.1396
     42 H18         4.6982   11.2326    1.8525 H         1 <0>         0.1384
     43 H19         5.2517   10.4541    4.1211 H         1 <0>         0.1388
     44 H20         5.7881    8.0845    4.5143 H         1 <0>         0.1400
     45 H21         7.0147    6.3939    4.3603 H         1 <0>         0.0766
     46 H22         5.2939    6.0541    4.6632 H         1 <0>         0.0789
     47 H23         5.8043    3.6635    3.5372 H         1 <0>         0.1202
     48 H24         8.1166    4.6175    5.2561 H         1 <0>         0.1036
     49 H25         7.6924    2.8631    4.7646 H         1 <0>         0.1145
     50 H26         2.7968    0.8747   -1.0483 H         1 <0>         0.0709
     51 H27         3.2463    1.6427    0.4933 H         1 <0>         0.0734
     52 H28         2.3773    0.0892    0.4929 H         1 <0>         0.0651
     53 N2          3.9307    6.2609    0.0401 N.4       1 <0>        -0.3939
     54 H29         3.1584    6.9361    0.0832 H         1 <0>         0.4208
@<TRIPOS>BOND
     1    1    2 1
     2    1   25 1
     3    1   26 1
     4    1   27 1
     5    2    7 ar
     6    2    3 ar
     7    3    4 ar
     8    3   28 1
     9    4    5 ar
    10    4   29 1
    11    5    6 ar
    12    5   24 1
    13    6    7 ar
    14    6    8 1
    15    7   30 1
    16    8   12 1
    17    8    9 1
    18    9   10 1
    19    9   31 1
    20    9   32 1
    21   10   33 1
    22   10   34 1
    23   10   53 1
    24   11   12 1
    25   11   35 1
    26   11   36 1
    27   11   53 1
    28   12   37 1
    29   12   38 1
    30   13   14 1
    31   13   39 1
    32   13   40 1
    33   13   53 1
    34   14   19 ar
    35   14   15 ar
    36   15   16 ar
    37   15   41 1
    38   16   17 ar
    39   16   42 1
    40   17   18 ar
    41   17   43 1
    42   18   19 ar
    43   18   44 1
    44   19   20 1
    45   20   21 1
    46   21   22 1
    47   21   45 1
    48   21   46 1
    49   22   23 2
    50   22   47 1
    51   23   48 1
    52   23   49 1
    53   24   50 1
    54   24   51 1
    55   24   52 1
    56   53   54 1
@<TRIPOS>MOLECULE
ZINC24541447
   58    61     0     0     0
SMALL
USER_CHARGES
benzyl-methyl-dipropyl-BLAHone
@<TRIPOS>ATOM
      1 C1         -4.1412   10.3902    0.2026 C.3       1 <0>        -0.1555
      2 C2         -4.3048    9.0604   -0.5361 C.3       1 <0>        -0.1334
      3 C3         -2.9624    8.3269   -0.5693 C.3       1 <0>        -0.0965
      4 C4         -3.1260    6.9971   -1.3081 C.3       1 <0>        -0.1427
      5 C5         -1.8012    6.2179   -1.3699 C.3       1 <0>        -0.0061
      6 N1         -2.0155    4.9541   -2.0872 N.4       1 <0>        -0.4211
      7 C6         -2.4065    5.1700   -3.4865 C.3       1 <0>        -0.0026
      8 C7         -3.7609    5.8979   -3.5284 C.3       1 <0>        -0.1423
      9 C8         -3.5768    7.1956   -2.7505 C.2       1 <0>         0.3539
     10 O1         -3.7714    8.2849   -3.2341 O.2       1 <0>        -0.3775
     11 C9         -4.7828    5.0551   -2.7491 C.3       1 <0>         0.0431
     12 N2         -4.2951    4.8425   -1.3801 N.3       1 <0>        -0.4950
     13 C10        -4.1780    6.1023   -0.6341 C.3       1 <0>         0.0397
     14 C11        -3.0112    4.1243   -1.3917 C.3       1 <0>         0.2347
     15 C12        -3.1752    2.7908   -2.1235 C.3       1 <0>        -0.1777
     16 C13        -2.5528    3.8685    0.0455 C.3       1 <0>        -0.0903
     17 C14        -1.2377    3.1328    0.0299 C.ar      1 <0>        -0.1214
     18 C15        -1.2190    1.7507    0.0173 C.ar      1 <0>        -0.1013
     19 C16        -0.0126    1.0758    0.0080 C.ar      1 <0>        -0.1037
     20 C17         1.1750    1.7832    0.0004 C.ar      1 <0>        -0.1029
     21 C18         1.1563    3.1654    0.0076 C.ar      1 <0>        -0.1051
     22 C19        -0.0501    3.8402    0.0223 C.ar      1 <0>        -0.1477
     23 C20        -4.2196    6.1502   -4.9660 C.3       1 <0>        -0.0976
     24 C21        -3.1703    6.9909   -5.6961 C.3       1 <0>        -0.1364
     25 C22        -3.6291    7.2432   -7.1337 C.3       1 <0>        -0.1561
     26 H1         -5.1063   10.9175    0.2265 H         1 <0>         0.0626
     27 H2         -3.3973   11.0103   -0.3191 H         1 <0>         0.0581
     28 H3         -3.8024   10.1988    1.2315 H         1 <0>         0.0576
     29 H4         -5.0487    8.4403   -0.0144 H         1 <0>         0.0650
     30 H5         -4.6436    9.2517   -1.5650 H         1 <0>         0.0778
     31 H6         -2.2185    8.9471   -1.0909 H         1 <0>         0.0828
     32 H7         -2.6236    8.1355    0.4596 H         1 <0>         0.0861
     33 H8         -1.0468    6.8187   -1.8990 H         1 <0>         0.1363
     34 H9         -1.4517    6.0073   -0.3484 H         1 <0>         0.1464
     35 H10        -1.6436    5.7818   -3.9902 H         1 <0>         0.1366
     36 H11        -2.4938    4.1994   -3.9968 H         1 <0>         0.1478
     37 H12        -5.7468    5.5840   -2.7182 H         1 <0>         0.1158
     38 H13        -4.9135    4.0835   -3.2481 H         1 <0>         0.1190
     39 H14        -3.8702    5.8900    0.4004 H         1 <0>         0.1173
     40 H15        -5.1494    6.6184   -0.6290 H         1 <0>         0.1188
     41 H16        -3.9205    2.1743   -1.5996 H         1 <0>         0.1172
     42 H17        -2.2107    2.2623   -2.1431 H         1 <0>         0.0940
     43 H18        -3.5123    2.9771   -3.1539 H         1 <0>         0.0842
     44 H19        -2.4295    4.8289    0.5674 H         1 <0>         0.0976
     45 H20        -3.3065    3.2612    0.5682 H         1 <0>         0.1297
     46 H21        -2.1469    1.1980    0.0188 H         1 <0>         0.1322
     47 H22         0.0021   -0.0041    0.0020 H         1 <0>         0.1337
     48 H23         2.1175    1.2560   -0.0115 H         1 <0>         0.1327
     49 H24         2.0841    3.7181    0.0014 H         1 <0>         0.1320
     50 H25        -0.0647    4.9201    0.0276 H         1 <0>         0.1198
     51 H26        -4.3448    5.1885   -5.4850 H         1 <0>         0.0870
     52 H27        -5.1786    6.6889   -4.9557 H         1 <0>         0.0908
     53 H28        -3.0451    7.9526   -5.1770 H         1 <0>         0.0792
     54 H29        -2.2113    6.4522   -5.7065 H         1 <0>         0.0568
     55 H30        -2.8747    7.8476   -7.6586 H         1 <0>         0.0616
     56 H31        -4.5881    7.7819   -7.1233 H         1 <0>         0.0606
     57 H32        -3.7543    6.2815   -7.6527 H         1 <0>         0.0579
     58 H33        -1.0535    4.4208   -2.0983 H         1 <0>         0.4463
@<TRIPOS>BOND
     1    1    2 1
     2    1   26 1
     3    1   27 1
     4    1   28 1
     5    2    3 1
     6    2   29 1
     7    2   30 1
     8    3    4 1
     9    3   31 1
    10    3   32 1
    11    4    9 1
    12    4   13 1
    13    4    5 1
    14    5    6 1
    15    5   33 1
    16    5   34 1
    17    6   14 1
    18    6    7 1
    19    6   58 1
    20    7    8 1
    21    7   35 1
    22    7   36 1
    23    8    9 1
    24    8   11 1
    25    8   23 1
    26    9   10 2
    27   11   12 1
    28   11   37 1
    29   11   38 1
    30   12   13 1
    31   12   14 1
    32   13   39 1
    33   13   40 1
    34   14   15 1
    35   14   16 1
    36   15   41 1
    37   15   42 1
    38   15   43 1
    39   16   17 1
    40   16   44 1
    41   16   45 1
    42   17   22 ar
    43   17   18 ar
    44   18   19 ar
    45   18   46 1
    46   19   20 ar
    47   19   47 1
    48   20   21 ar
    49   20   48 1
    50   21   22 ar
    51   21   49 1
    52   22   50 1
    53   23   24 1
    54   23   51 1
    55   23   52 1
    56   24   25 1
    57   24   53 1
    58   24   54 1
    59   25   55 1
    60   25   56 1
    61   25   57 1
@<TRIPOS>MOLECULE
ZINC37336520
   35    35     0     0     0
SMALL
USER_CHARGES

@<TRIPOS>ATOM
      1 C1          1.3895   -2.5874    0.0060 C.3       1 <0>        -0.1731
      2 C2          0.6648   -2.1326   -1.2625 C.3       1 <0>        -0.1433
      3 C3          0.5510   -0.6068   -1.2654 C.3       1 <0>         0.0138
      4 H1          0.0555   -0.2777   -0.3520 H         1 <0>         0.1438
      5 C4         -0.2663   -0.1588   -2.4788 C.3       1 <0>        -0.1843
      6 N1          1.8940   -0.0157   -1.3343 N.4       1 <0>        -0.3755
      7 C5          2.5066   -0.3416   -2.6291 C.3       1 <0>        -0.0217
      8 C6          3.9610    0.1335   -2.6391 C.3       1 <0>        -0.1898
      9 C7          1.7948    1.4431   -1.1929 C.3       1 <0>        -0.0636
     10 C8          1.3126    1.7817    0.1942 C.2       1 <0>         0.4052
     11 O1          1.1761    0.9032    1.0205 O.2       1 <0>        -0.4206
     12 C9          1.0093    3.1685    0.5445 C.2       1 <0>        -0.2113
     13 C10         1.1538    4.2423   -0.4128 C.2       1 <0>        -0.0815
     14 C11         0.8419    5.4732    0.0365 C.2       1 <0>        -0.2055
     15 S1          0.3617    5.1813    1.7249 S.3       1 <0>         0.3656
     16 C12         0.5643    3.5179    1.8065 C.2       1 <0>        -0.1707
     17 Br1         0.2580    2.3813    3.2864 Br        1 <0>         0.0971
     18 Br2         0.9011    7.1149   -0.9002 Br        1 <0>         0.0732
     19 H2          2.4174   -2.2254   -0.0132 H         1 <0>         0.0498
     20 H3          0.8786   -2.1847    0.8805 H         1 <0>         0.0754
     21 H4          1.3886   -3.6764    0.0542 H         1 <0>         0.0828
     22 H5          1.2272   -2.4566   -2.1382 H         1 <0>         0.0869
     23 H6         -0.3326   -2.5714   -1.2883 H         1 <0>         0.1119
     24 H7          0.2291   -0.4879   -3.3922 H         1 <0>         0.0853
     25 H8         -1.2628   -0.5974   -2.4277 H         1 <0>         0.1076
     26 H9         -0.3474    0.9282   -2.4809 H         1 <0>         0.0774
     27 H10         2.4756   -1.4200   -2.7846 H         1 <0>         0.1377
     28 H11         1.9562    0.1566   -3.4272 H         1 <0>         0.1348
     29 H12         4.3963   -0.0499   -3.6215 H         1 <0>         0.1103
     30 H13         3.9962    1.2005   -2.4195 H         1 <0>         0.0784
     31 H14         4.5266   -0.4118   -1.8836 H         1 <0>         0.0820
     32 H15         2.7747    1.8915   -1.3565 H         1 <0>         0.1673
     33 H16         1.0899    1.8323   -1.9276 H         1 <0>         0.1646
     34 H17         1.4908    4.0685   -1.4240 H         1 <0>         0.1629
     35 H18         2.4639   -0.3878   -0.5894 H         1 <0>         0.4272
@<TRIPOS>BOND
     1    1    2 1
     2    1   19 1
     3    1   20 1
     4    1   21 1
     5    2    3 1
     6    2   22 1
     7    2   23 1
     8    3    4 1
     9    3    5 1
    10    3    6 1
    11    5   24 1
    12    5   25 1
    13    5   26 1
    14    6    7 1
    15    6    9 1
    16    6   35 1
    17    7    8 1
    18    7   27 1
    19    7   28 1
    20    8   29 1
    21    8   30 1
    22    8   31 1
    23    9   10 1
    24    9   32 1
    25    9   33 1
    26   10   11 2
    27   10   12 1
    28   12   16 2
    29   12   13 1
    30   13   14 2
    31   13   34 1
    32   14   15 1
    33   14   18 1
    34   15   16 1
    35   16   17 1
@<TRIPOS>MOLECULE
ZINC53975168
   39    40     0     0     0
SMALL
USER_CHARGES

@<TRIPOS>ATOM
      1 C1         -0.2089    1.5525   -0.2416 C.3       1 <0>        -0.0586
      2 N1         -0.0506    0.1031   -0.0624 N.4       1 <0>        -0.3871
      3 C2          0.5861   -0.4710   -1.2553 C.3       1 <0>        -0.0033
      4 C3          2.0080    0.0781   -1.3887 C.3       1 <0>        -0.1966
      5 C4          2.6611   -0.5109   -2.6124 C.2       1 <0>         0.4069
      6 O1          2.0497   -1.2928   -3.3092 O.2       1 <0>        -0.4285
      7 C5          4.0393   -0.1377   -2.9615 C.ar      1 <0>        -0.2218
      8 C6          4.7507    0.7598   -2.1571 C.ar      1 <0>        -0.0486
      9 C7          6.0420    1.1047   -2.4910 C.ar      1 <0>        -0.1407
     10 C8          6.6383    0.5669   -3.6197 C.ar      1 <0>        -0.0435
     11 C9          5.9451   -0.3201   -4.4217 C.ar      1 <0>        -0.1647
     12 C10         4.6505   -0.6829   -4.0983 C.ar      1 <0>         0.1662
     13 F1          3.9756   -1.5548   -4.8789 F         1 <0>        -0.1131
     14 C11        -1.3697   -0.5131    0.1331 C.3       1 <0>         0.0345
     15 C12        -1.9646   -0.0259    1.4292 C.ar      1 <0>        -0.1320
     16 C13        -2.9758    0.9165    1.4145 C.ar      1 <0>        -0.0823
     17 C14        -3.5219    1.3630    2.6032 C.ar      1 <0>        -0.0948
     18 C15        -3.0570    0.8675    3.8073 C.ar      1 <0>        -0.0782
     19 C16        -2.0460   -0.0746    3.8229 C.ar      1 <0>        -0.0801
     20 C17        -1.5028   -0.5258    2.6332 C.ar      1 <0>        -0.0863
     21 Br1        -0.1244   -1.8201    2.6536 Br        1 <0>        -0.0316
     22 H1          0.7736    2.0213   -0.2965 H         1 <0>         0.1265
     23 H2         -0.7564    1.7470   -1.1638 H         1 <0>         0.1290
     24 H3         -0.7615    1.9647    0.6028 H         1 <0>         0.1254
     25 H4          0.6231   -1.5563   -1.1607 H         1 <0>         0.1403
     26 H5          0.0086   -0.2029   -2.1400 H         1 <0>         0.1432
     27 H6          1.9710    1.1633   -1.4834 H         1 <0>         0.1258
     28 H7          2.5855   -0.1900   -0.5040 H         1 <0>         0.1242
     29 H8          4.2883    1.1814   -1.2769 H         1 <0>         0.1386
     30 H9          6.5913    1.7972   -1.8705 H         1 <0>         0.1422
     31 H10         7.6509    0.8426   -3.8748 H         1 <0>         0.1456
     32 H11         6.4172   -0.7343   -5.3003 H         1 <0>         0.1492
     33 H12        -2.0251   -0.2385   -0.6934 H         1 <0>         0.1479
     34 H13        -1.2627   -1.5973    0.1673 H         1 <0>         0.1422
     35 H14        -3.3391    1.3041    0.4742 H         1 <0>         0.1446
     36 H15        -4.3117    2.0996    2.5914 H         1 <0>         0.1459
     37 H16        -3.4837    1.2169    4.7359 H         1 <0>         0.1475
     38 H17        -1.6829   -0.4617    4.7635 H         1 <0>         0.1475
     39 H18         0.5269   -0.0748    0.7456 H         1 <0>         0.4186
@<TRIPOS>BOND
     1    1    2 1
     2    1   22 1
     3    1   23 1
     4    1   24 1
     5    2    3 1
     6    2   14 1
     7    2   39 1
     8    3    4 1
     9    3   25 1
    10    3   26 1
    11    4    5 1
    12    4   27 1
    13    4   28 1
    14    5    6 2
    15    5    7 1
    16    7   12 ar
    17    7    8 ar
    18    8    9 ar
    19    8   29 1
    20    9   10 ar
    21    9   30 1
    22   10   11 ar
    23   10   31 1
    24   11   12 ar
    25   11   32 1
    26   12   13 1
    27   14   15 1
    28   14   33 1
    29   14   34 1
    30   15   20 ar
    31   15   16 ar
    32   16   17 ar
    33   16   35 1
    34   17   18 ar
    35   17   36 1
    36   18   19 ar
    37   18   37 1
    38   19   20 ar
    39   19   38 1
    40   20   21 1
@<TRIPOS>MOLECULE
ZINC66675821
   58    61     0     0     0
SMALL
USER_CHARGES

@<TRIPOS>ATOM
      1 C1         -0.0184    1.5028    0.0103 C.3       1 <0>        -0.0699
      2 C2          0.0021   -0.0041    0.0020 C.2       1 <0>        -0.1552
      3 C3          0.0096   -0.8518   -1.0556 C.2       1 <0>        -0.1647
      4 C4          0.0298   -2.2142   -0.8225 C.2       1 <0>        -0.1495
      5 C5          0.0414   -2.6621    0.4567 C.2       1 <0>        -0.1154
      6 S1          0.0306   -1.1357    1.3826 S.3       1 <0>         0.0911
      7 C6          0.0634   -4.0805    0.9655 C.3       1 <0>        -0.0326
      8 H1         -0.3535   -4.8283    0.2910 H         1 <0>         0.1367
      9 C7         -0.1337   -4.2954    2.4674 C.3       1 <0>        -0.1418
     10 C8          1.2474   -4.4992    1.8395 C.3       1 <0>        -0.1883
     11 H2          1.6090   -5.5226    1.7403 H         1 <0>         0.1322
     12 C9          2.3022   -3.4616    2.1257 C.2       1 <0>         0.5351
     13 O1          2.1930   -2.3437    1.6684 O.2       1 <0>        -0.4960
     14 N1          3.3668   -3.7761    2.8900 N.am      1 <0>        -0.6172
     15 C10         3.5160   -5.1278    3.4461 C.3       1 <0>         0.1057
     16 C11         3.7168   -5.0184    4.9609 C.3       1 <0>        -0.1266
     17 C12         4.8960   -4.0865    5.2491 C.3       1 <0>        -0.1146
     18 C13         4.5914   -2.6908    4.7002 C.3       1 <0>        -0.1435
     19 C14         4.4034   -2.7754    3.1779 C.3       1 <0>         0.1148
     20 C15         5.1214   -4.0020    6.7601 C.3       1 <0>        -0.0066
     21 N2          6.3249   -3.2047    7.0318 N.4       1 <0>        -0.3858
     22 C16         7.5042   -3.9017    6.5014 C.3       1 <0>        -0.0572
     23 C17         6.4747   -3.0228    8.4818 C.3       1 <0>         0.0447
     24 C18         7.6374   -2.1039    8.7553 C.ar      1 <0>        -0.1630
     25 C19         8.9073   -2.6256    8.9176 C.ar      1 <0>        -0.0965
     26 C20         9.9738   -1.7828    9.1685 C.ar      1 <0>        -0.1139
     27 C21         9.7706   -0.4183    9.2567 C.ar      1 <0>        -0.0834
     28 C22         8.5010    0.1034    9.0936 C.ar      1 <0>        -0.1127
     29 C23         7.4351   -0.7390    8.8384 C.ar      1 <0>        -0.0942
     30 H3          1.0042    1.8801    0.0026 H         1 <0>         0.0756
     31 H4         -0.5455    1.8639   -0.8728 H         1 <0>         0.0803
     32 H5         -0.5286    1.8543    0.9071 H         1 <0>         0.0705
     33 H6         -0.0003   -0.4686   -2.0653 H         1 <0>         0.1276
     34 H7          0.0358   -2.9113   -1.6474 H         1 <0>         0.1261
     35 H8         -0.2794   -3.4109    3.0876 H         1 <0>         0.1019
     36 H9         -0.6800   -5.1849    2.7811 H         1 <0>         0.1178
     37 H10         2.6184   -5.7099    3.2376 H         1 <0>         0.0986
     38 H11         4.3819   -5.6142    2.9969 H         1 <0>         0.0735
     39 H12         2.8139   -4.6152    5.4193 H         1 <0>         0.0810
     40 H13         3.9246   -6.0061    5.3726 H         1 <0>         0.0886
     41 H14         5.7935   -4.4774    4.7696 H         1 <0>         0.0982
     42 H15         3.6802   -2.3095    5.1612 H         1 <0>         0.0849
     43 H16         5.4216   -2.0217    4.9265 H         1 <0>         0.0676
     44 H17         5.3401   -3.0738    2.7073 H         1 <0>         0.0702
     45 H18         4.0913   -1.8047    2.7924 H         1 <0>         0.1030
     46 H19         4.2589   -3.5297    7.2302 H         1 <0>         0.1316
     47 H20         5.2515   -5.0057    7.1647 H         1 <0>         0.1336
     48 H21         7.5974   -4.8756    6.9820 H         1 <0>         0.1239
     49 H22         7.3930   -4.0367    5.4255 H         1 <0>         0.1242
     50 H23         8.3972   -3.3101    6.7030 H         1 <0>         0.1249
     51 H24         5.5629   -2.5861    8.8893 H         1 <0>         0.1359
     52 H25         6.6566   -3.9890    8.9523 H         1 <0>         0.1361
     53 H26         9.0660   -3.6916    8.8486 H         1 <0>         0.1310
     54 H27        10.9658   -2.1904    9.2959 H         1 <0>         0.1364
     55 H28        10.6038    0.2401    9.4535 H         1 <0>         0.1363
     56 H29         8.3422    1.1695    9.1628 H         1 <0>         0.1365
     57 H30         6.4437   -0.3311    8.7073 H         1 <0>         0.1308
     58 H31         6.2386   -2.3032    6.5869 H         1 <0>         0.4220
@<TRIPOS>BOND
     1    1    2 1
     2    1   30 1
     3    1   31 1
     4    1   32 1
     5    2    6 1
     6    2    3 2
     7    3    4 1
     8    3   33 1
     9    4    5 2
    10    4   34 1
    11    5    6 1
    12    5    7 1
    13    7    8 1
    14    7   10 1
    15    7    9 1
    16    9   10 1
    17    9   35 1
    18    9   36 1
    19   10   11 1
    20   10   12 1
    21   12   13 2
    22   12   14 am
    23   14   19 1
    24   14   15 1
    25   15   16 1
    26   15   37 1
    27   15   38 1
    28   16   17 1
    29   16   39 1
    30   16   40 1
    31   17   18 1
    32   17   20 1
    33   17   41 1
    34   18   19 1
    35   18   42 1
    36   18   43 1
    37   19   44 1
    38   19   45 1
    39   20   21 1
    40   20   46 1
    41   20   47 1
    42   21   22 1
    43   21   23 1
    44   21   58 1
    45   22   48 1
    46   22   49 1
    47   22   50 1
    48   23   24 1
    49   23   51 1
    50   23   52 1
    51   24   29 ar
    52   24   25 ar
    53   25   26 ar
    54   25   53 1
    55   26   27 ar
    56   26   54 1
    57   27   28 ar
    58   27   55 1
    59   28   29 ar
    60   28   56 1
    61   29   57 1
@<TRIPOS>MOLECULE
ZINC38797244
   48    52     0     0     0
SMALL
USER_CHARGES

@<TRIPOS>ATOM
      1 C1          0.4360    1.3205   -1.2318 C.ar      1 <0>        -0.0028
      2 C2          1.5677    2.0570   -0.9260 C.ar      1 <0>        -0.0846
      3 C3          2.7602    1.4252   -0.6373 C.ar      1 <0>        -0.0789
      4 C4          2.8333    0.0239   -0.6521 C.ar      1 <0>        -0.1218
      5 C5          1.6744   -0.7215   -0.9651 C.ar      1 <0>        -0.0598
      6 C6          0.4839   -0.0635   -1.2526 C.ar      1 <0>        -0.0564
      7 C7          1.7301   -2.2008   -0.9867 C.2       1 <0>         0.4160
      8 O1          0.7448   -2.8615   -1.2537 O.2       1 <0>        -0.3471
      9 C8          3.0190   -2.8481   -0.6744 C.ar      1 <0>        -0.0587
     10 C9          3.1705   -4.2198   -0.6696 C.ar      1 <0>        -0.0554
     11 C10         4.4080   -4.7967   -0.3686 C.ar      1 <0>         0.0738
     12 C11         5.5071   -4.0604   -0.0707 C.ar      1 <0>        -0.1760
     13 C12         5.4535   -2.6449   -0.0495 C.ar      1 <0>         0.3359
     14 N1          6.5366   -1.9322    0.2448 N.am      1 <0>        -0.5893
     15 C13         6.5541   -0.6079    0.2823 C.2       1 <0>         0.5154
     16 O2          7.5832   -0.0225    0.5596 O.2       1 <0>        -0.3886
     17 C14         5.2961    0.1778   -0.0197 C.3       1 <0>         0.0117
     18 H1          5.5075    0.8414   -0.8582 H         1 <0>         0.2242
     19 C15         4.0538   -0.6201   -0.3571 C.2       1 <0>         0.1674
     20 C16         4.1711   -2.0019   -0.3607 C.ar      1 <0>        -0.1487
     21 N2          4.9928    1.0141    1.1493 N.4       1 <0>        -0.5024
     22 C17         4.9599    0.1762    2.3555 C.3       1 <0>         0.0032
     23 C18         3.6837   -0.6678    2.3555 C.3       1 <0>        -0.1641
     24 C19         3.6494   -1.5405    3.6118 C.3       1 <0>        -0.1126
     25 C20         3.6703   -0.6474    4.8539 C.3       1 <0>        -0.1341
     26 C21         4.9464    0.1966    4.8538 C.3       1 <0>        -0.1187
     27 C22         4.9807    1.0693    3.5976 C.3       1 <0>        -0.1366
     28 H2         -0.4915    1.8285   -1.4513 H         1 <0>         0.1740
     29 H3          1.5170    3.1357   -0.9135 H         1 <0>         0.1707
     30 H4          3.6372    2.0093   -0.4004 H         1 <0>         0.1374
     31 H5         -0.4031   -0.6312   -1.4916 H         1 <0>         0.1748
     32 H6          2.3263   -4.8528   -0.8997 H         1 <0>         0.1855
     33 H7          4.4920   -5.8734   -0.3734 H         1 <0>         0.1877
     34 H8          6.4374   -4.5608    0.1543 H         1 <0>         0.1864
     35 H9          5.7049    1.7216    1.2506 H         1 <0>         0.4550
     36 H10         5.8298   -0.4805    2.3655 H         1 <0>         0.1350
     37 H11         2.8138   -0.0111    2.3455 H         1 <0>         0.1031
     38 H12         3.6689   -1.3041    1.4706 H         1 <0>         0.0757
     39 H13         2.7403   -2.1418    3.6118 H         1 <0>         0.0932
     40 H14         4.5194   -2.1972    3.6218 H         1 <0>         0.0741
     41 H15         2.8003    0.0093    4.8438 H         1 <0>         0.0769
     42 H16         3.6458   -1.2691    5.7489 H         1 <0>         0.0899
     43 H17         4.9612    0.8329    5.7387 H         1 <0>         0.0985
     44 H18         5.8163   -0.4601    4.8639 H         1 <0>         0.0769
     45 H19         5.8898    1.6706    3.5976 H         1 <0>         0.1002
     46 H20         4.1108    1.7260    3.5875 H         1 <0>         0.0985
     47 H21         7.3585   -2.4076    0.4431 H         1 <0>         0.4576
     48 H22         4.0948    1.4564    1.0225 H         1 <0>         0.4382
@<TRIPOS>BOND
     1    1    6 ar
     2    1    2 ar
     3    1   28 1
     4    2    3 ar
     5    2   29 1
     6    3    4 ar
     7    3   30 1
     8    4   19 1
     9    4    5 ar
    10    5    6 ar
    11    5    7 1
    12    6   31 1
    13    7    8 2
    14    7    9 1
    15    9   20 ar
    16    9   10 ar
    17   10   11 ar
    18   10   32 1
    19   11   12 ar
    20   11   33 1
    21   12   13 ar
    22   12   34 1
    23   13   20 ar
    24   13   14 2
    25   14   15 am
    26   14   47 1
    27   15   16 2
    28   15   17 1
    29   17   18 1
    30   17   19 1
    31   17   21 1
    32   19   20 2
    33   21   22 1
    34   21   35 1
    35   21   48 1
    36   22   27 1
    37   22   23 1
    38   22   36 1
    39   23   24 1
    40   23   37 1
    41   23   38 1
    42   24   25 1
    43   24   39 1
    44   24   40 1
    45   25   26 1
    46   25   41 1
    47   25   42 1
    48   26   27 1
    49   26   43 1
    50   26   44 1
    51   27   45 1
    52   27   46 1
@<TRIPOS>MOLECULE
ZINC39935149
   39    42     0     0     0
SMALL
USER_CHARGES

@<TRIPOS>ATOM
      1 C1         -0.0184    1.5028    0.0103 C.3       1 <0>        -0.1521
      2 C2          0.0021   -0.0041    0.0020 C.ar      1 <0>         0.0122
      3 C3          0.0052   -0.6722   -1.2301 C.ar      1 <0>         0.0577
      4 C4          0.0288   -2.0220   -1.3083 C.ar      1 <0>        -0.1651
      5 C5          0.0522   -2.8120   -0.0712 C.ar      1 <0>         0.3642
      6 N1          0.0450   -4.1068    0.1395 N.pl3     1 <0>        -0.5419
      7 C6          0.2035   -4.3510    1.5633 C.3       1 <0>         0.3233
      8 H1          1.1995   -4.7468    1.7616 H         1 <0>         0.2190
      9 C7          0.0435   -2.9987    2.2352 C.2       1 <0>        -0.0511
     10 C8          0.0367   -2.0749    1.2179 C.ar      1 <0>         0.0726
     11 C9          0.0222   -0.6616    1.1838 C.ar      1 <0>        -0.1133
     12 N2         -0.1840   -2.8884    3.5463 N.2       1 <0>         0.0485
     13 N3         -0.7801   -3.9023    4.0975 N.2       1 <0>        -0.1214
     14 C10        -1.2023   -4.9687    3.3763 C.cat     1 <0>         0.6354
     15 N4         -0.8052   -5.2303    2.1520 N.pl3     1 <0>        -0.6647
     16 N5         -2.1010   -5.8357    3.9650 N.pl3     1 <0>        -0.4403
     17 N6         -2.5494   -5.5995    5.2712 N.2       1 <0>        -0.2555
     18 C11        -3.3945   -6.4149    5.8248 C.2       1 <0>         0.2222
     19 C12        -3.8664   -6.1663    7.1992 C.ar      1 <0>        -0.1035
     20 C13        -4.7714   -7.0447    7.8004 C.ar      1 <0>        -0.0477
     21 C14        -5.2082   -6.8063    9.0866 C.ar      1 <0>        -0.1194
     22 C15        -4.7528   -5.6997    9.7823 C.ar      1 <0>        -0.0476
     23 C16        -3.8568   -4.8251    9.1946 C.ar      1 <0>        -0.1199
     24 C17        -3.4060   -5.0537    7.9096 C.ar      1 <0>         0.0130
     25 Cl1        -2.2763   -3.9588    7.1756 Cl        1 <0>        -0.0162
     26 H2          1.0042    1.8801    0.0026 H         1 <0>         0.1173
     27 H3         -0.5455    1.8639   -0.8728 H         1 <0>         0.1023
     28 H4         -0.5286    1.8543    0.9071 H         1 <0>         0.1015
     29 H5         -0.0120   -0.0934   -2.1417 H         1 <0>         0.1936
     30 H6          0.0300   -2.5134   -2.2700 H         1 <0>         0.1944
     31 H7          0.0230   -0.1031    2.1081 H         1 <0>         0.1874
     32 H8         -2.4220   -6.6084    3.4743 H         1 <0>         0.4156
     33 H9         -3.7519   -7.2752    5.2784 H         1 <0>         0.1550
     34 H10        -5.1284   -7.9083    7.2590 H         1 <0>         0.1477
     35 H11        -5.9077   -7.4846    9.5522 H         1 <0>         0.1492
     36 H12        -5.0992   -5.5181   10.7890 H         1 <0>         0.1501
     37 H13        -3.5058   -3.9637    9.7434 H         1 <0>         0.1500
     38 H14        -0.0505   -4.7893   -0.5431 H         1 <0>         0.4743
     39 H15        -1.1698   -5.9784    1.6537 H         1 <0>         0.4531
@<TRIPOS>BOND
     1    1    2 1
     2    1   26 1
     3    1   27 1
     4    1   28 1
     5    2   11 ar
     6    2    3 ar
     7    3    4 ar
     8    3   29 1
     9    4    5 ar
    10    4   30 1
    11    5   10 ar
    12    5    6 2
    13    6    7 1
    14    6   38 1
    15    7    8 1
    16    7   15 1
    17    7    9 1
    18    9   10 2
    19    9   12 1
    20   10   11 ar
    21   11   31 1
    22   12   13 2
    23   13   14 1
    24   14   15 2
    25   14   16 1
    26   15   39 1
    27   16   17 1
    28   16   32 1
    29   17   18 2
    30   18   19 1
    31   18   33 1
    32   19   24 ar
    33   19   20 ar
    34   20   21 ar
    35   20   34 1
    36   21   22 ar
    37   21   35 1
    38   22   23 ar
    39   22   36 1
    40   23   24 ar
    41   23   37 1
    42   24   25 1
@<TRIPOS>MOLECULE
ZINC39700706
   39    42     0     0     0
SMALL
USER_CHARGES

@<TRIPOS>ATOM
      1 C1         -0.0184    1.5028    0.0103 C.3       1 <0>        -0.1705
      2 C2          0.0021   -0.0041    0.0020 C.ar      1 <0>         0.1433
      3 C3          0.0053   -0.6722   -1.2301 C.ar      1 <0>        -0.0274
      4 C4          0.0293   -2.0220   -1.3083 C.ar      1 <0>        -0.0865
      5 C5          0.0531   -2.8120   -0.0712 C.ar      1 <0>         0.3313
      6 N1          0.0464   -4.1068    0.1395 N.pl3     1 <0>        -0.4195
      7 C6          0.2051   -4.3510    1.5632 C.3       1 <0>         0.2590
      8 H1          1.2014   -4.7464    1.7615 H         1 <0>         0.2152
      9 C7          0.0448   -2.9987    2.2352 C.2       1 <0>        -0.1057
     10 C8          0.0375   -2.0749    1.2179 C.ar      1 <0>         0.1530
     11 C9          0.0222   -0.6616    1.1838 C.ar      1 <0>        -0.1528
     12 N2         -0.1826   -2.8884    3.5463 N.2       1 <0>         0.0933
     13 N3         -0.7782   -3.9025    4.0975 N.pl3     1 <0>        -0.3460
     14 C10        -1.2002   -4.9691    3.3765 C.2       1 <0>         0.5887
     15 N4         -0.8032   -5.2306    2.1521 N.2       1 <0>        -0.4969
     16 N5         -2.0986   -5.8365    3.9653 N.pl3     1 <0>        -0.5261
     17 N6         -2.5619   -6.9527    3.2566 N.2       1 <0>        -0.2452
     18 C11        -3.4067   -7.7683    3.8103 C.2       1 <0>         0.1866
     19 C12        -3.8943   -8.9430    3.0645 C.ar      1 <0>        -0.0791
     20 C13        -3.4449   -9.1845    1.7639 C.ar      1 <0>        -0.0610
     21 C14        -3.9046  -10.2853    1.0721 C.ar      1 <0>        -0.1008
     22 C15        -4.8100  -11.1501    1.6636 C.ar      1 <0>        -0.0565
     23 C16        -5.2595  -10.9166    2.9523 C.ar      1 <0>        -0.0942
     24 C17        -4.8035   -9.8227    3.6574 C.ar      1 <0>        -0.0624
     25 Br1        -5.4359  -12.6564    0.7068 Br        1 <0>        -0.0193
     26 H2          1.0042    1.8801    0.0026 H         1 <0>         0.1430
     27 H3         -0.5455    1.8639   -0.8728 H         1 <0>         0.1193
     28 H4         -0.5286    1.8543    0.9071 H         1 <0>         0.1156
     29 H5         -0.0122   -0.0934   -2.1417 H         1 <0>         0.2038
     30 H6          0.0305   -2.5133   -2.2700 H         1 <0>         0.2063
     31 H7          0.0230   -0.1031    2.1081 H         1 <0>         0.1964
     32 H8         -2.4090   -5.6730    4.8697 H         1 <0>         0.4119
     33 H9         -3.7523   -7.5863    4.8172 H         1 <0>         0.1419
     34 H10        -2.7392   -8.5104    1.3011 H         1 <0>         0.1405
     35 H11        -3.5580  -10.4732    0.0666 H         1 <0>         0.1429
     36 H12        -5.9660  -11.5948    3.4077 H         1 <0>         0.1487
     37 H13        -5.1514   -9.6442    4.6641 H         1 <0>         0.1455
     38 H14        -0.9254   -3.8962    5.0563 H         1 <0>         0.4816
     39 H15        -0.0494   -4.7893   -0.5430 H         1 <0>         0.4821
@<TRIPOS>BOND
     1    1    2 1
     2    1   26 1
     3    1   27 1
     4    1   28 1
     5    2   11 ar
     6    2    3 ar
     7    3    4 ar
     8    3   29 1
     9    4    5 ar
    10    4   30 1
    11    5   10 ar
    12    5    6 2
    13    6    7 1
    14    6   39 1
    15    7    8 1
    16    7   15 1
    17    7    9 1
    18    9   10 2
    19    9   12 1
    20   10   11 ar
    21   11   31 1
    22   12   13 2
    23   13   14 1
    24   13   38 1
    25   14   15 2
    26   14   16 1
    27   16   17 1
    28   16   32 1
    29   17   18 2
    30   18   19 1
    31   18   33 1
    32   19   24 ar
    33   19   20 ar
    34   20   21 ar
    35   20   34 1
    36   21   22 ar
    37   21   35 1
    38   22   23 ar
    39   22   25 1
    40   23   24 ar
    41   23   36 1
    42   24   37 1
@<TRIPOS>MOLECULE
ZINC63746495
   48    50     0     0     0
SMALL
USER_CHARGES

@<TRIPOS>ATOM
      1 C1         -0.0187    1.5258    0.0104 C.3       1 <0>        -0.1635
      2 C2          0.0021   -0.0041    0.0020 C.3       1 <0>         0.1884
      3 H1         -1.0205   -0.3814    0.0098 H         1 <0>         0.1076
      4 C3          0.7309   -0.5033    1.2229 C.ar      1 <0>        -0.1202
      5 C4          2.1132   -0.5135    1.2461 C.ar      1 <0>        -0.0902
      6 C5          2.7827   -0.9706    2.3653 C.ar      1 <0>        -0.1497
      7 C6          2.0685   -1.4185    3.4637 C.ar      1 <0>         0.1144
      8 C7          0.6842   -1.4079    3.4393 C.ar      1 <0>        -0.1430
      9 C8          0.0169   -0.9453    2.3210 C.ar      1 <0>        -0.0707
     10 F1          2.7219   -1.8661    4.5582 F         1 <0>        -0.1293
     11 N1          0.6878   -0.4765   -1.2033 N.am      1 <0>        -0.7022
     12 C9          0.0062   -0.6081   -2.3585 C.2       1 <0>         0.5354
     13 O1         -1.1748   -0.3355   -2.4003 O.2       1 <0>        -0.4985
     14 C10         0.7116   -1.0941   -3.5984 C.3       1 <0>        -0.1572
     15 H2          1.4045   -1.8925   -3.3329 H         1 <0>         0.1227
     16 C11         1.4859    0.0636   -4.2316 C.3       1 <0>        -0.1636
     17 S1         -0.5106   -1.7232   -4.7821 S.3       1 <0>         0.0927
     18 C12         0.4940   -2.4000   -6.1323 C.3       1 <0>         0.2187
     19 H3         -0.1511   -2.8213   -6.9033 H         1 <0>         0.2628
     20 N2          1.4020   -3.4315   -5.6164 N.pl3     1 <0>        -0.4536
     21 C13         2.6198   -3.0369   -5.8541 C.ar      1 <0>         0.3206
     22 C14         3.9291   -3.6433   -5.5703 C.ar      1 <0>        -0.0968
     23 C15         5.0558   -3.0025   -5.9339 C.ar      1 <0>        -0.0337
     24 C16         5.0235   -1.7109   -6.6078 C.ar      1 <0>         0.2963
     25 C17         3.8566   -1.0881   -6.9039 C.ar      1 <0>        -0.2280
     26 C18         2.5852   -1.7184   -6.5426 C.ar      1 <0>         0.3117
     27 N3          1.3427   -1.3480   -6.7050 N.pl3     1 <0>        -0.5050
     28 O2          6.1935   -1.1154   -6.9479 O.3       1 <0>        -0.2364
     29 C19         7.3964   -1.8108   -6.6144 C.3       1 <0>        -0.0108
     30 H4          1.0039    1.9031    0.0027 H         1 <0>         0.0641
     31 H5         -0.5459    1.8868   -0.8726 H         1 <0>         0.0670
     32 H6         -0.5289    1.8773    0.9072 H         1 <0>         0.0825
     33 H7          2.6700   -0.1644    0.3891 H         1 <0>         0.1248
     34 H8          3.8625   -0.9788    2.3831 H         1 <0>         0.1408
     35 H9          0.1261   -1.7573    4.2954 H         1 <0>         0.1459
     36 H10        -1.0629   -0.9327    2.3035 H         1 <0>         0.1397
     37 H11         1.6324   -0.6946   -1.1699 H         1 <0>         0.4026
     38 H12         2.2203    0.4416   -3.5203 H         1 <0>         0.1068
     39 H13         1.9961   -0.2879   -5.1284 H         1 <0>         0.0407
     40 H14         0.7929    0.8620   -4.4972 H         1 <0>         0.1072
     41 H15         3.9867   -4.5994   -5.0714 H         1 <0>         0.2149
     42 H16         6.0110   -3.4586   -5.7196 H         1 <0>         0.2095
     43 H17         3.8646   -0.1309   -7.4041 H         1 <0>         0.2089
     44 H18         7.4447   -1.9563   -5.5352 H         1 <0>         0.0933
     45 H19         7.4057   -2.7803   -7.1124 H         1 <0>         0.0939
     46 H20         8.2565   -1.2263   -6.9410 H         1 <0>         0.1462
     47 H21         1.1421   -4.2567   -5.1777 H         1 <0>         0.4966
     48 H22         1.0370   -0.5296   -7.1263 H         1 <0>         0.4959
@<TRIPOS>BOND
     1    1    2 1
     2    1   30 1
     3    1   31 1
     4    1   32 1
     5    2    3 1
     6    2    4 1
     7    2   11 1
     8    4    9 ar
     9    4    5 ar
    10    5    6 ar
    11    5   33 1
    12    6    7 ar
    13    6   34 1
    14    7    8 ar
    15    7   10 1
    16    8    9 ar
    17    8   35 1
    18    9   36 1
    19   11   12 am
    20   11   37 1
    21   12   13 2
    22   12   14 1
    23   14   15 1
    24   14   16 1
    25   14   17 1
    26   16   38 1
    27   16   39 1
    28   16   40 1
    29   17   18 1
    30   18   19 1
    31   18   27 1
    32   18   20 1
    33   20   21 2
    34   20   47 1
    35   21   26 ar
    36   21   22 ar
    37   22   23 ar
    38   22   41 1
    39   23   24 ar
    40   23   42 1
    41   24   25 ar
    42   24   28 1
    43   25   26 ar
    44   25   43 1
    45   26   27 2
    46   27   48 1
    47   28   29 1
    48   29   44 1
    49   29   45 1
    50   29   46 1
@<TRIPOS>MOLECULE
ZINC65042607
   50    55     0     0     0
SMALL
USER_CHARGES

@<TRIPOS>ATOM
      1 C1         -0.0167    1.3781    0.0096 C.ar      1 <0>        -0.0928
      2 C2          1.1709    2.0855    0.0021 C.ar      1 <0>        -0.1214
      3 C3          2.3773    1.4107   -0.0130 C.ar      1 <0>        -0.1009
      4 C4          2.3960    0.0285   -0.0201 C.ar      1 <0>        -0.1462
      5 C5          1.2084   -0.6789   -0.0117 C.ar      1 <0>        -0.0793
      6 C6          0.0021   -0.0041    0.0020 C.ar      1 <0>        -0.1101
      7 C7          3.7112   -0.7071   -0.0376 C.3       1 <0>         0.4330
      8 H1          4.5042   -0.0444    0.3088 H         1 <0>         0.1152
      9 N1          3.6302   -1.8801    0.8449 N.pl3     1 <0>        -0.7466
     10 C8          3.0258   -3.0625    0.4195 C.ar      1 <0>         0.2075
     11 C9          2.4014   -3.9151    1.3135 C.ar      1 <0>        -0.1637
     12 C10         1.8302   -5.0902    0.8610 C.ar      1 <0>        -0.0492
     13 C11         1.8755   -5.4283   -0.4808 C.ar      1 <0>        -0.1450
     14 C12         2.4878   -4.5860   -1.3905 C.ar      1 <0>        -0.0297
     15 C13         3.0548   -3.4012   -0.9483 C.ar      1 <0>        -0.1042
     16 C14         3.6833   -2.4241   -1.8551 C.2       1 <0>         0.2961
     17 N2          4.0048   -1.1511   -1.3985 N.pl3     1 <0>        -0.4750
     18 C15         4.5831   -0.5187   -2.4429 C.2       1 <0>         0.1575
     19 N3          4.5686   -1.3595   -3.4594 N.2       1 <0>        -0.2726
     20 N4          4.0219   -2.4796   -3.1046 N.2       1 <0>        -0.2558
     21 S1          5.2331    1.1191   -2.4468 S.3       1 <0>        -0.0072
     22 C16         5.8518    1.3416   -4.1375 C.3       1 <0>        -0.1576
     23 C17         6.4515    2.7419   -4.2809 C.3       1 <0>         0.2780
     24 N5          5.4494    3.7573   -3.9333 N.pl3     1 <0>        -0.4662
     25 C18         5.9119    4.4317   -2.9206 C.ar      1 <0>         0.3257
     26 C19         5.3755    5.5549   -2.1396 C.ar      1 <0>        -0.1383
     27 C20         6.0976    6.0608   -1.1198 C.ar      1 <0>         0.0362
     28 C21         7.3608    5.5569   -0.7621 C.ar      1 <0>         0.0366
     29 C22         7.9439    4.5296   -1.4116 C.ar      1 <0>        -0.1386
     30 C23         7.2487    3.8980   -2.5416 C.ar      1 <0>         0.3267
     31 N6          7.5611    2.9143   -3.3348 N.pl3     1 <0>        -0.4679
     32 H2         -0.9591    1.9053    0.0259 H         1 <0>         0.1340
     33 H3          1.1563    3.1654    0.0076 H         1 <0>         0.1287
     34 H4          3.3051    1.9634   -0.0196 H         1 <0>         0.1125
     35 H5          1.2231   -1.7588   -0.0176 H         1 <0>         0.1282
     36 H6         -0.9258   -0.5567    0.0082 H         1 <0>         0.1345
     37 H7          4.0040   -1.8308    1.7386 H         1 <0>         0.4231
     38 H8          2.3602   -3.6627    2.3628 H         1 <0>         0.1381
     39 H9          1.3435   -5.7520    1.5622 H         1 <0>         0.1403
     40 H10         1.4315   -6.3532   -0.8181 H         1 <0>         0.1415
     41 H11         2.5242   -4.8495   -2.4373 H         1 <0>         0.1425
     42 H12         6.6184    0.5951   -4.3450 H         1 <0>         0.1754
     43 H13         5.0298    1.2243   -4.8436 H         1 <0>         0.1768
     44 H14         6.8026    2.8954   -5.3013 H         1 <0>         0.2564
     45 H15         4.4093    5.9726   -2.3812 H         1 <0>         0.2080
     46 H16         5.6898    6.8863   -0.5553 H         1 <0>         0.2053
     47 H17         7.8844    6.0108    0.0662 H         1 <0>         0.2053
     48 H18         8.9160    4.1735   -1.1038 H         1 <0>         0.2078
     49 H19         4.5989    3.8996   -4.3773 H         1 <0>         0.4988
     50 H20         8.3772    2.3908   -3.3059 H         1 <0>         0.4986
@<TRIPOS>BOND
     1    1    6 ar
     2    1    2 ar
     3    1   32 1
     4    2    3 ar
     5    2   33 1
     6    3    4 ar
     7    3   34 1
     8    4    5 ar
     9    4    7 1
    10    5    6 ar
    11    5   35 1
    12    6   36 1
    13    7    8 1
    14    7   17 1
    15    7    9 1
    16    9   10 1
    17    9   37 1
    18   10   15 ar
    19   10   11 ar
    20   11   12 ar
    21   11   38 1
    22   12   13 ar
    23   12   39 1
    24   13   14 ar
    25   13   40 1
    26   14   15 ar
    27   14   41 1
    28   15   16 1
    29   16   20 2
    30   16   17 1
    31   17   18 1
    32   18   19 2
    33   18   21 1
    34   19   20 1
    35   21   22 1
    36   22   23 1
    37   22   42 1
    38   22   43 1
    39   23   31 1
    40   23   24 1
    41   23   44 1
    42   24   25 2
    43   24   49 1
    44   25   30 ar
    45   25   26 ar
    46   26   27 ar
    47   26   45 1
    48   27   28 ar
    49   27   46 1
    50   28   29 ar
    51   28   47 1
    52   29   30 ar
    53   29   48 1
    54   30   31 2
    55   31   50 1
@<TRIPOS>MOLECULE
ZINC12387465
   61    63     0     0     0
SMALL
USER_CHARGES
N-[[2-(azocan-1-yl)-3-pyridyl]methyl]-1-(3-methyl-1-propyl-pyrazol-4-yl)methanamine
@<TRIPOS>ATOM
      1 C1         -9.8391   -0.3020    0.5969 C.3       1 <0>        -0.1565
      2 C2         -8.7136   -0.0377    1.5990 C.3       1 <0>        -0.1326
      3 C3         -8.3717    1.4536    1.6003 C.3       1 <0>         0.1185
      4 N1         -7.2940    1.7067    2.5598 N.pl3     1 <0>        -0.3426
      5 C4         -6.1212    2.3189    2.2933 C.2       1 <0>         0.1119
      6 C5         -5.4039    2.3531    3.4402 C.2       1 <0>        -0.3351
      7 C6         -6.1679    1.7488    4.4439 C.2       1 <0>         0.0925
      8 N2         -7.3011    1.3609    3.9173 N.2       1 <0>        -0.2636
      9 C7         -5.7570    1.5749    5.8833 C.3       1 <0>        -0.0854
     10 C8         -4.0276    2.9437    3.6078 C.3       1 <0>         0.0922
     11 C9         -1.6709    2.4074    3.7521 C.3       1 <0>         0.0540
     12 C10        -0.6666    1.2931    3.6082 C.ar      1 <0>        -0.1479
     13 C11        -0.1380    0.6766    4.7282 C.ar      1 <0>         0.0483
     14 C12         0.7846   -0.3453    4.5487 C.ar      1 <0>        -0.1211
     15 C13         1.1450   -0.7138    3.2679 C.ar      1 <0>         0.1721
     16 C14        -0.2582    0.8706    2.3474 C.ar      1 <0>         0.3683
     17 N3         -0.7817    1.4809    1.2135 N.pl3     1 <0>        -0.5066
     18 C15         0.2785    1.7936    0.2476 C.3       1 <0>         0.0291
     19 C16        -0.3457    2.1895   -1.0919 C.3       1 <0>        -0.1303
     20 C17        -0.0146    1.1221   -2.1399 C.3       1 <0>        -0.1340
     21 C18        -0.8789   -0.1137   -1.8830 C.3       1 <0>        -0.1328
     22 C19        -0.3333   -0.8809   -0.6797 C.3       1 <0>        -0.1402
     23 C20        -1.3230   -0.7911    0.4816 C.3       1 <0>        -0.1850
     24 C21        -1.8276    0.6493    0.6055 C.3       1 <0>         0.0185
     25 H1         -9.5157   -0.0025   -0.4000 H         1 <0>         0.0605
     26 H2        -10.0826   -1.3645    0.5960 H         1 <0>         0.0702
     27 H3        -10.7207    0.2726    0.8808 H         1 <0>         0.0653
     28 H4         -7.8319   -0.6123    1.3151 H         1 <0>         0.0649
     29 H5         -9.0369   -0.3372    2.5959 H         1 <0>         0.0813
     30 H6         -9.2533    2.0282    1.8842 H         1 <0>         0.1018
     31 H7         -8.0483    1.7531    0.6034 H         1 <0>         0.1072
     32 H8         -5.8099    2.7093    1.3357 H         1 <0>         0.1854
     33 H9         -6.0765    2.4431    6.4598 H         1 <0>         0.0951
     34 H10        -6.2245    0.6776    6.2887 H         1 <0>         0.0897
     35 H11        -4.6730    1.4783    5.9426 H         1 <0>         0.0633
     36 H12        -3.9735    3.4750    4.5581 H         1 <0>         0.1437
     37 H13        -3.8283    3.6380    2.7916 H         1 <0>         0.1402
     38 H14        -1.5743    2.8582    4.7398 H         1 <0>         0.1634
     39 H15        -1.4872    3.1630    2.9883 H         1 <0>         0.1638
     40 H16        -0.4365    0.9831    5.7198 H         1 <0>         0.1932
     41 H17         1.2158   -0.8470    5.4024 H         1 <0>         0.2042
     42 H18         1.8626   -1.5079    3.1238 H         1 <0>         0.2101
     43 H19         0.9116    0.9174    0.1077 H         1 <0>         0.0581
     44 H20         0.8809    2.6198    0.6252 H         1 <0>         0.1080
     45 H21        -1.4272    2.2671   -0.9806 H         1 <0>         0.0893
     46 H22         0.0576    3.1505   -1.4114 H         1 <0>         0.0945
     47 H23        -0.2230    1.5122   -3.1361 H         1 <0>         0.0875
     48 H24         1.0392    0.8535   -2.0665 H         1 <0>         0.0732
     49 H25        -1.9042    0.1962   -1.6812 H         1 <0>         0.0770
     50 H26        -0.8614   -0.7577   -2.7623 H         1 <0>         0.0843
     51 H27        -0.1877   -1.9263   -0.9520 H         1 <0>         0.0915
     52 H28         0.6209   -0.4497   -0.3771 H         1 <0>         0.0532
     53 H29        -2.1654   -1.4569    0.2942 H         1 <0>         0.1102
     54 H30        -0.8261   -1.0834    1.4067 H         1 <0>         0.0573
     55 H31        -2.0698    1.0362   -0.3843 H         1 <0>         0.1498
     56 H32        -2.7193    0.6697    1.2321 H         1 <0>         0.0806
     57 N4         -3.0299    1.8574    3.5896 N.4       1 <0>        -0.5239
     58 H33        -3.0886    1.3586    2.6941 H         1 <0>         0.4184
     59 H34        -3.2254    1.2051    4.3582 H         1 <0>         0.4297
     60 N5          0.6422   -0.1345    2.1452 N.ar      1 <0>        -0.5079
     61 H35         0.9225   -0.4347    1.2042 H         1 <0>         0.4740
@<TRIPOS>BOND
     1    1    2 1
     2    1   25 1
     3    1   26 1
     4    1   27 1
     5    2    3 1
     6    2   28 1
     7    2   29 1
     8    3    4 1
     9    3   30 1
    10    3   31 1
    11    4    8 1
    12    4    5 1
    13    5    6 2
    14    5   32 1
    15    6    7 1
    16    6   10 1
    17    7    8 2
    18    7    9 1
    19    9   33 1
    20    9   34 1
    21    9   35 1
    22   10   36 1
    23   10   37 1
    24   10   57 1
    25   11   12 1
    26   11   38 1
    27   11   39 1
    28   11   57 1
    29   12   16 ar
    30   12   13 ar
    31   13   14 ar
    32   13   40 1
    33   14   15 ar
    34   14   41 1
    35   15   42 1
    36   15   60 ar
    37   16   17 1
    38   16   60 ar
    39   17   24 1
    40   17   18 1
    41   18   19 1
    42   18   43 1
    43   18   44 1
    44   19   20 1
    45   19   45 1
    46   19   46 1
    47   20   21 1
    48   20   47 1
    49   20   48 1
    50   21   22 1
    51   21   49 1
    52   21   50 1
    53   22   23 1
    54   22   51 1
    55   22   52 1
    56   23   24 1
    57   23   53 1
    58   23   54 1
    59   24   55 1
    60   24   56 1
    61   57   58 1
    62   57   59 1
    63   60   61 1
@<TRIPOS>MOLECULE
ZINC39982625
   48    51     0     0     0
SMALL
USER_CHARGES

@<TRIPOS>ATOM
      1 C1         -0.0187    1.5258    0.0104 C.3       1 <0>        -0.1845
      2 C2          0.0021   -0.0041    0.0020 C.3       1 <0>         0.1372
      3 H1         -1.0205   -0.3814    0.0098 H         1 <0>         0.1665
      4 C3          0.7309   -0.5033    1.2229 C.2       1 <0>        -0.1226
      5 C4          0.1564   -0.9632    2.3489 C.2       1 <0>        -0.1206
      6 C5          1.2050   -1.3223    3.2266 C.2       1 <0>        -0.2127
      7 C6          2.3576   -1.0604    2.5845 C.2       1 <0>         0.0172
      8 O1          2.0643   -0.5699    1.3691 O.3       1 <0>        -0.1827
      9 N1          0.6897   -0.4778   -1.2066 N.4       1 <0>        -0.5020
     10 C7         -0.0856   -0.0931   -2.3936 C.3       1 <0>         0.0378
     11 H2         -0.2549    0.9836   -2.3837 H         1 <0>         0.1783
     12 C8         -1.4110   -0.8102   -2.3820 C.ar      1 <0>        -0.1636
     13 C9         -1.4794   -2.1297   -1.9758 C.ar      1 <0>        -0.1095
     14 C10        -2.6952   -2.7875   -1.9651 C.ar      1 <0>        -0.0909
     15 C11        -3.8426   -2.1256   -2.3603 C.ar      1 <0>        -0.0725
     16 C12        -3.7744   -0.8058   -2.7656 C.ar      1 <0>        -0.0986
     17 C13        -2.5592   -0.1467   -2.7722 C.ar      1 <0>        -0.0991
     18 C14         0.6786   -0.4701   -3.6366 C.2       1 <0>         0.4040
     19 O2          1.5573   -1.3062   -3.5789 O.2       1 <0>        -0.3729
     20 C15         0.3731    0.1485   -4.8674 C.2       1 <0>        -0.1041
     21 C16         0.9709   -0.0857   -6.0926 C.ar      1 <0>        -0.0123
     22 C17         2.0098   -0.9525   -6.5064 C.ar      1 <0>        -0.0905
     23 C18         2.4034   -0.9756   -7.7994 C.ar      1 <0>        -0.0736
     24 C19         1.8170   -0.1601   -8.7805 C.ar      1 <0>         0.0305
     25 C20         0.8189    0.7021   -8.4902 C.ar      1 <0>        -0.1741
     26 C21         0.3296    0.7897   -7.1042 C.ar      1 <0>         0.3222
     27 N2         -0.6000    1.5177   -6.5546 N.pl3     1 <0>        -0.5272
     28 C22        -0.6816    1.2023   -5.1249 C.3       1 <0>         0.0634
     29 H3          1.0039    1.9031    0.0027 H         1 <0>         0.0908
     30 H4         -0.5459    1.8868   -0.8726 H         1 <0>         0.0851
     31 H5         -0.5289    1.8773    0.9072 H         1 <0>         0.1206
     32 H6         -0.9027   -1.0423    2.5450 H         1 <0>         0.1627
     33 H7          1.1006   -1.7286    4.2218 H         1 <0>         0.1672
     34 H8          3.3504   -1.2210    2.9781 H         1 <0>         0.2219
     35 H9          1.6080   -0.0627   -1.2556 H         1 <0>         0.4379
     36 H10        -0.5830   -2.6469   -1.6670 H         1 <0>         0.1265
     37 H11        -2.7485   -3.8186   -1.6484 H         1 <0>         0.1463
     38 H12        -4.7924   -2.6397   -2.3526 H         1 <0>         0.1462
     39 H13        -4.6708   -0.2887   -3.0747 H         1 <0>         0.1464
     40 H14        -2.5065    0.8855   -3.0854 H         1 <0>         0.1354
     41 H15         2.4906   -1.5980   -5.7862 H         1 <0>         0.1707
     42 H16         3.1990   -1.6463   -8.0886 H         1 <0>         0.1693
     43 H17         2.1751   -0.2239   -9.7974 H         1 <0>         0.1780
     44 H18         0.3856    1.3187   -9.2638 H         1 <0>         0.1794
     45 H19        -1.6695    0.8120   -4.8805 H         1 <0>         0.1828
     46 H20        -0.4732    2.0940   -4.5338 H         1 <0>         0.1846
     47 H21        -1.1543    2.1643   -7.0190 H         1 <0>         0.4674
     48 H22         0.7761   -1.4825   -1.1724 H         1 <0>         0.4376
@<TRIPOS>BOND
     1    1    2 1
     2    1   29 1
     3    1   30 1
     4    1   31 1
     5    2    3 1
     6    2    4 1
     7    2    9 1
     8    4    8 1
     9    4    5 2
    10    5    6 1
    11    5   32 1
    12    6    7 2
    13    6   33 1
    14    7    8 1
    15    7   34 1
    16    9   10 1
    17    9   35 1
    18    9   48 1
    19   10   11 1
    20   10   12 1
    21   10   18 1
    22   12   17 ar
    23   12   13 ar
    24   13   14 ar
    25   13   36 1
    26   14   15 ar
    27   14   37 1
    28   15   16 ar
    29   15   38 1
    30   16   17 ar
    31   16   39 1
    32   17   40 1
    33   18   19 2
    34   18   20 1
    35   20   28 1
    36   20   21 2
    37   21   26 ar
    38   21   22 ar
    39   22   23 ar
    40   22   41 1
    41   23   24 ar
    42   23   42 1
    43   24   25 ar
    44   24   43 1
    45   25   26 ar
    46   25   44 1
    47   26   27 2
    48   27   28 1
    49   27   47 1
    50   28   45 1
    51   28   46 1
@<TRIPOS>MOLECULE
ZINC53446992
   47    48     0     0     0
SMALL
USER_CHARGES

@<TRIPOS>ATOM
      1 C1         -0.0187    1.5258    0.0104 C.3       1 <0>        -0.1867
      2 C2          0.0021   -0.0041    0.0020 C.3       1 <0>         0.0291
      3 H1         -1.0205   -0.3814    0.0098 H         1 <0>         0.1554
      4 C3          0.7182   -0.4975   -1.2568 C.3       1 <0>         0.0533
      5 H2          0.8297   -1.5814   -1.2276 H         1 <0>         0.1000
      6 C4         -0.0658   -0.0714   -2.5235 C.3       1 <0>        -0.1489
      7 C5          1.0684   -0.0664   -3.5844 C.3       1 <0>        -0.1580
      8 C6          2.2872    0.3985   -2.7588 C.3       1 <0>         0.0523
      9 O1          2.0032    0.1328   -1.3788 O.3       1 <0>        -0.3882
     10 N1          0.7126   -0.4907    1.1921 N.4       1 <0>        -0.5003
     11 C7         -0.0398   -0.1189    2.3978 C.3       1 <0>        -0.0419
     12 C8          0.7001   -0.6257    3.6373 C.3       1 <0>        -0.0370
     13 N2         -0.0523   -0.2539    4.8429 N.4       1 <0>        -0.3805
     14 C9         -0.0744    1.2090    4.9746 C.3       1 <0>        -0.0684
     15 C10         0.5935   -0.8421    6.0240 C.3       1 <0>         0.0460
     16 C11        -0.2445   -0.5644    7.2453 C.ar      1 <0>        -0.1639
     17 C12        -0.0322    0.5860    7.9820 C.ar      1 <0>        -0.0875
     18 C13        -0.8009    0.8414    9.1019 C.ar      1 <0>        -0.0863
     19 C14        -1.7826   -0.0543    9.4857 C.ar      1 <0>        -0.0567
     20 C15        -1.9947   -1.2053    8.7483 C.ar      1 <0>        -0.0858
     21 C16        -1.2291   -1.4572    7.6255 C.ar      1 <0>        -0.0836
     22 Br1        -2.8342    0.2942   11.0182 Br        1 <0>        -0.0031
     23 H3          1.0039    1.9031    0.0027 H         1 <0>         0.0960
     24 H4         -0.5459    1.8868   -0.8726 H         1 <0>         0.1150
     25 H5         -0.5289    1.8773    0.9072 H         1 <0>         0.0779
     26 H6         -0.8348   -0.8023   -2.7739 H         1 <0>         0.1006
     27 H7         -0.4958    0.9230   -2.4034 H         1 <0>         0.0937
     28 H8          1.2298   -1.0674   -3.9844 H         1 <0>         0.0890
     29 H9          0.8486    0.6412   -4.3839 H         1 <0>         0.1000
     30 H10         3.1746   -0.1553   -3.0655 H         1 <0>         0.0865
     31 H11         2.4475    1.4666   -2.9054 H         1 <0>         0.0857
     32 H12         0.7982   -1.4950    1.1455 H         1 <0>         0.4357
     33 H13        -0.1324    0.9660    2.4481 H         1 <0>         0.1545
     34 H14        -1.0328   -0.5668    2.3589 H         1 <0>         0.1549
     35 H15         0.7927   -1.7106    3.5869 H         1 <0>         0.1548
     36 H16         1.6931   -0.1778    3.6761 H         1 <0>         0.1545
     37 H17         0.9467    1.5821    5.0541 H         1 <0>         0.1336
     38 H18        -0.5535    1.6455    4.0983 H         1 <0>         0.1241
     39 H19        -0.6326    1.4849    5.8692 H         1 <0>         0.1393
     40 H20         0.6899   -1.9192    5.8868 H         1 <0>         0.1451
     41 H21         1.5824   -0.4025    6.1542 H         1 <0>         0.1451
     42 H22         0.7346    1.2851    7.6825 H         1 <0>         0.1414
     43 H23        -0.6347    1.7400    9.6776 H         1 <0>         0.1501
     44 H24        -2.7611   -1.9048    9.0475 H         1 <0>         0.1499
     45 H25        -1.3973   -2.3538    7.0473 H         1 <0>         0.1410
     46 H26        -0.9975   -0.5992    4.7694 H         1 <0>         0.4316
     47 H27         1.6317   -0.0761    1.2281 H         1 <0>         0.4405
@<TRIPOS>BOND
     1    1    2 1
     2    1   23 1
     3    1   24 1
     4    1   25 1
     5    2    3 1
     6    2    4 1
     7    2   10 1
     8    4    5 1
     9    4    9 1
    10    4    6 1
    11    6    7 1
    12    6   26 1
    13    6   27 1
    14    7    8 1
    15    7   28 1
    16    7   29 1
    17    8    9 1
    18    8   30 1
    19    8   31 1
    20   10   11 1
    21   10   32 1
    22   10   47 1
    23   11   12 1
    24   11   33 1
    25   11   34 1
    26   12   13 1
    27   12   35 1
    28   12   36 1
    29   13   14 1
    30   13   15 1
    31   13   46 1
    32   14   37 1
    33   14   38 1
    34   14   39 1
    35   15   16 1
    36   15   40 1
    37   15   41 1
    38   16   21 ar
    39   16   17 ar
    40   17   18 ar
    41   17   42 1
    42   18   19 ar
    43   18   43 1
    44   19   20 ar
    45   19   22 1
    46   20   21 ar
    47   20   44 1
    48   21   45 1
@<TRIPOS>MOLECULE
ZINC63626133
   52    55     0     0     0
SMALL
USER_CHARGES

@<TRIPOS>ATOM
      1 C1         -0.0184    1.5028    0.0103 C.3       1 <0>        -0.1348
      2 C2          0.0021   -0.0041    0.0020 C.ar      1 <0>        -0.0800
      3 C3          0.0054   -0.6798   -1.2260 C.ar      1 <0>         0.0582
      4 C4          0.0232   -2.0265   -1.3172 C.ar      1 <0>        -0.1992
      5 C5          0.0393   -2.8264   -0.1414 C.ar      1 <0>         0.3309
      6 N1          0.0568   -4.1260    0.0301 N.pl3     1 <0>        -0.5692
      7 C6          0.0669   -4.4078    1.4699 C.3       1 <0>         0.0652
      8 C7          0.0525   -3.0602    2.1563 C.2       1 <0>         0.0116
      9 C8          0.0362   -2.1366    1.1684 C.ar      1 <0>        -0.1194
     10 C9          0.0223   -0.6689    1.1796 C.ar      1 <0>        -0.0598
     11 C10         0.0550   -2.7994    3.6406 C.3       1 <0>        -0.1049
     12 C11        -1.3793   -2.8538    4.1703 C.3       1 <0>        -0.0241
     13 N2         -1.3768   -2.5996    5.6172 N.4       1 <0>        -0.4920
     14 C12        -2.7540   -2.6517    6.1258 C.3       1 <0>        -0.0071
     15 H1         -3.2275   -3.5944    5.8515 H         1 <0>         0.1999
     16 C13        -2.7752   -2.4587    7.6558 C.3       1 <0>        -0.1665
     17 C14        -3.5883   -1.1963    7.8428 C.2       1 <0>         0.5148
     18 O1         -3.8513   -0.6818    8.9085 O.2       1 <0>        -0.3976
     19 N3         -3.9709   -0.7374    6.6447 N.am      1 <0>        -0.5257
     20 C15        -3.5585   -1.4805    5.6058 C.2       1 <0>         0.5159
     21 O2         -3.7907   -1.2512    4.4382 O.2       1 <0>        -0.4192
     22 C16        -4.7413    0.4233    6.4875 C.ar      1 <0>         0.1296
     23 C17        -4.1196    1.6553    6.3344 C.ar      1 <0>        -0.0947
     24 C18        -4.8811    2.7970    6.1798 C.ar      1 <0>        -0.0724
     25 C19        -6.2616    2.7140    6.1775 C.ar      1 <0>        -0.0854
     26 C20        -6.8835    1.4886    6.3298 C.ar      1 <0>        -0.0567
     27 C21        -6.1270    0.3424    6.4791 C.ar      1 <0>        -0.1614
     28 C22        -6.8055   -0.9936    6.6388 C.3       1 <0>         0.5047
     29 F1         -8.1931   -0.8198    6.5981 F         1 <0>        -0.1598
     30 F2         -6.4114   -1.8440    5.6001 F         1 <0>        -0.1803
     31 F3         -6.4420   -1.5575    7.8664 F         1 <0>        -0.1722
     32 H2          1.0042    1.8801    0.0026 H         1 <0>         0.0945
     33 H3         -0.5455    1.8639   -0.8728 H         1 <0>         0.0883
     34 H4         -0.5286    1.8543    0.9071 H         1 <0>         0.0829
     35 H5         -0.0072   -0.0993   -2.1366 H         1 <0>         0.1683
     36 H6          0.0250   -2.4990   -2.2884 H         1 <0>         0.1692
     37 H7         -0.8185   -4.9800    1.7469 H         1 <0>         0.1736
     38 H8          0.9693   -4.9569    1.7389 H         1 <0>         0.1783
     39 H9          0.0241   -0.1279    2.1144 H         1 <0>         0.1588
     40 H10         0.6565   -3.5579    4.1417 H         1 <0>         0.1340
     41 H11         0.4773   -1.8136    3.8355 H         1 <0>         0.1275
     42 H12        -1.9807   -2.0954    3.6692 H         1 <0>         0.1551
     43 H13        -1.8015   -3.8396    3.9754 H         1 <0>         0.1511
     44 H14        -0.8201   -3.3016    6.0811 H         1 <0>         0.4468
     45 H15        -3.2617   -3.3040    8.1425 H         1 <0>         0.1701
     46 H16        -1.7639   -2.3239    8.0395 H         1 <0>         0.1517
     47 H17        -3.0416    1.7208    6.3365 H         1 <0>         0.1393
     48 H18        -4.3981    3.7557    6.0610 H         1 <0>         0.1522
     49 H19        -6.8551    3.6083    6.0568 H         1 <0>         0.1547
     50 H20        -7.9617    1.4269    6.3276 H         1 <0>         0.1570
     51 H21         0.0620   -4.7902   -0.6768 H         1 <0>         0.4622
     52 H22        -0.9860   -1.6870    5.7976 H         1 <0>         0.4359
@<TRIPOS>BOND
     1    1    2 1
     2    1   32 1
     3    1   33 1
     4    1   34 1
     5    2   10 ar
     6    2    3 ar
     7    3    4 ar
     8    3   35 1
     9    4    5 ar
    10    4   36 1
    11    5    9 ar
    12    5    6 2
    13    6    7 1
    14    6   51 1
    15    7    8 1
    16    7   37 1
    17    7   38 1
    18    8    9 2
    19    8   11 1
    20    9   10 ar
    21   10   39 1
    22   11   12 1
    23   11   40 1
    24   11   41 1
    25   12   13 1
    26   12   42 1
    27   12   43 1
    28   13   14 1
    29   13   44 1
    30   13   52 1
    31   14   15 1
    32   14   20 1
    33   14   16 1
    34   16   17 1
    35   16   45 1
    36   16   46 1
    37   17   18 2
    38   17   19 am
    39   19   20 am
    40   19   22 1
    41   20   21 2
    42   22   27 ar
    43   22   23 ar
    44   23   24 ar
    45   23   47 1
    46   24   25 ar
    47   24   48 1
    48   25   26 ar
    49   25   49 1
    50   26   27 ar
    51   26   50 1
    52   27   28 1
    53   28   29 1
    54   28   30 1
    55   28   31 1
@<TRIPOS>MOLECULE
ZINC66191651
   63    66     0     0     0
SMALL
USER_CHARGES

@<TRIPOS>ATOM
      1 C1          3.0927    1.2298   -0.2558 C.3       1 <0>        -0.1307
      2 C2          3.0411    0.2390    0.9336 C.3       1 <0>        -0.1245
      3 C3          2.3317   -0.9940    0.3208 C.3       1 <0>        -0.1411
      4 C4          1.2615   -0.3899   -0.6118 C.3       1 <0>        -0.1196
      5 C5          1.7454    1.0240   -0.9784 C.3       1 <0>        -0.1175
      6 C6          1.1265   -1.2417   -1.8756 C.3       1 <0>        -0.0049
      7 N1          0.6288   -2.5762   -1.5158 N.4       1 <0>        -0.3856
      8 C7         -0.7385   -2.4625   -0.9941 C.3       1 <0>        -0.0065
      9 C8         -1.2322   -3.8386   -0.5424 C.3       1 <0>        -0.1553
     10 C9         -1.2178   -4.7974   -1.7364 C.3       1 <0>         0.1538
     11 C10         0.1977   -4.8509   -2.3185 C.3       1 <0>        -0.1603
     12 C11         0.6384   -3.4372   -2.7045 C.3       1 <0>        -0.0037
     13 N2         -1.6168   -6.1360   -1.2948 N.am      1 <0>        -0.7354
     14 C12        -2.1592   -7.0018   -2.1737 C.2       1 <0>         0.7302
     15 O1         -2.3175   -6.6719   -3.3332 O.2       1 <0>        -0.5671
     16 N3         -2.5263   -8.2333   -1.7674 N.am      1 <0>        -0.6349
     17 C13        -2.3981   -8.7581   -0.4000 C.3       1 <0>         0.0962
     18 C14        -2.9201  -10.2103   -0.4157 C.3       1 <0>        -0.1434
     19 C15        -2.7870  -10.6112   -1.9087 C.3       1 <0>         0.0095
     20 H1         -1.7705  -10.9308   -2.1382 H         1 <0>         0.1553
     21 C16        -3.1287   -9.2751   -2.6190 C.3       1 <0>         0.1165
     22 N4         -3.7570  -11.6564   -2.2616 N.4       1 <0>        -0.3875
     23 C17        -3.5559  -12.0877   -3.6687 C.3       1 <0>        -0.0077
     24 C18        -4.2040  -13.4946   -3.7043 C.3       1 <0>        -0.1454
     25 C19        -3.8300  -14.0825   -2.3243 C.3       1 <0>        -0.1455
     26 C20        -3.5318  -12.8616   -1.4344 C.3       1 <0>        -0.0072
     27 H2          3.1794    2.2547    0.1050 H         1 <0>         0.0787
     28 H3          3.9226    0.9865   -0.9193 H         1 <0>         0.0720
     29 H4          4.0468   -0.0192    1.2652 H         1 <0>         0.0779
     30 H5          2.4564    0.6522    1.7555 H         1 <0>         0.0760
     31 H6          3.0386   -1.5965   -0.2496 H         1 <0>         0.0727
     32 H7          1.8630   -1.5920    1.1023 H         1 <0>         0.0733
     33 H8          0.3038   -0.3343   -0.0944 H         1 <0>         0.0961
     34 H9          1.0225    1.7658   -0.6389 H         1 <0>         0.0820
     35 H10         1.8841    1.1034   -2.0566 H         1 <0>         0.0753
     36 H11         0.4261   -0.7655   -2.5616 H         1 <0>         0.1329
     37 H12         2.1001   -1.3347   -2.3568 H         1 <0>         0.1340
     38 H13        -0.7477   -1.7774   -0.1464 H         1 <0>         0.1400
     39 H14        -1.3947   -2.0803   -1.7761 H         1 <0>         0.1352
     40 H15        -0.5768   -4.2217    0.2399 H         1 <0>         0.0947
     41 H16        -2.2482   -3.7524   -0.1571 H         1 <0>         0.1205
     42 H17        -1.9118   -4.4416   -2.4979 H         1 <0>         0.1096
     43 H18         0.8827   -5.2549   -1.5731 H         1 <0>         0.0901
     44 H19         0.2038   -5.4882   -3.2028 H         1 <0>         0.1171
     45 H20        -0.0471   -3.0343   -3.4500 H         1 <0>         0.1342
     46 H21         1.6457   -3.4718   -3.1194 H         1 <0>         0.1363
     47 H22        -1.4905   -6.3992   -0.3697 H         1 <0>         0.4036
     48 H23        -1.3521   -8.7434   -0.0938 H         1 <0>         0.0854
     49 H24        -2.9956   -8.1568    0.2854 H         1 <0>         0.0885
     50 H25        -2.2998  -10.8499    0.2121 H         1 <0>         0.1158
     51 H26        -3.9619  -10.2491   -0.0973 H         1 <0>         0.1026
     52 H27        -4.2086   -9.1394   -2.6778 H         1 <0>         0.0885
     53 H28        -2.6878   -9.2522   -3.6155 H         1 <0>         0.1085
     54 H29        -4.0661  -11.4117   -4.3549 H         1 <0>         0.1377
     55 H30        -2.4935  -12.1474   -3.9046 H         1 <0>         0.1354
     56 H31        -5.2861  -13.4183   -3.8106 H         1 <0>         0.1004
     57 H32        -3.7778  -14.0953   -4.5078 H         1 <0>         0.1198
     58 H33        -4.6650  -14.6526   -1.9170 H         1 <0>         0.1081
     59 H34        -2.9455  -14.7139   -2.4091 H         1 <0>         0.1059
     60 H35        -2.4957  -12.8921   -1.0971 H         1 <0>         0.1311
     61 H36        -4.2043  -12.8542   -0.5766 H         1 <0>         0.1342
     62 H37         1.2248   -2.9765   -0.8069 H         1 <0>         0.4215
     63 H38        -4.6981  -11.3164   -2.1321 H         1 <0>         0.4271
@<TRIPOS>BOND
     1    1    5 1
     2    1    2 1
     3    1   27 1
     4    1   28 1
     5    2    3 1
     6    2   29 1
     7    2   30 1
     8    3    4 1
     9    3   31 1
    10    3   32 1
    11    4    5 1
    12    4    6 1
    13    4   33 1
    14    5   34 1
    15    5   35 1
    16    6    7 1
    17    6   36 1
    18    6   37 1
    19    7   12 1
    20    7    8 1
    21    7   62 1
    22    8    9 1
    23    8   38 1
    24    8   39 1
    25    9   10 1
    26    9   40 1
    27    9   41 1
    28   10   11 1
    29   10   13 1
    30   10   42 1
    31   11   12 1
    32   11   43 1
    33   11   44 1
    34   12   45 1
    35   12   46 1
    36   13   14 am
    37   13   47 1
    38   14   15 2
    39   14   16 am
    40   16   21 1
    41   16   17 1
    42   17   18 1
    43   17   48 1
    44   17   49 1
    45   18   19 1
    46   18   50 1
    47   18   51 1
    48   19   20 1
    49   19   21 1
    50   19   22 1
    51   21   52 1
    52   21   53 1
    53   22   26 1
    54   22   23 1
    55   22   63 1
    56   23   24 1
    57   23   54 1
    58   23   55 1
    59   24   25 1
    60   24   56 1
    61   24   57 1
    62   25   26 1
    63   25   58 1
    64   25   59 1
    65   26   60 1
    66   26   61 1
@<TRIPOS>MOLECULE
ZINC40717385
   46    48     0     0     0
SMALL
USER_CHARGES

@<TRIPOS>ATOM
      1 C1         -0.1714    1.4365   -0.2639 C.3       1 <0>        -0.1531
      2 C2         -0.0848   -0.0884   -0.1729 C.3       1 <0>        -0.1050
      3 H1          0.5025   -0.4939   -0.9967 H         1 <0>         0.1127
      4 C3         -1.4995   -0.7239   -0.1334 C.3       1 <0>        -0.1405
      5 C4         -1.2623   -2.0541    0.6122 C.3       1 <0>        -0.0228
      6 N1         -0.0257   -1.8988    1.4000 N.4       1 <0>        -0.3852
      7 C5          0.4961   -0.5306    1.1933 C.3       1 <0>        -0.0080
      8 C6         -0.3177   -2.1071    2.8245 C.3       1 <0>         0.0680
      9 H2         -1.1150   -1.4316    3.1345 H         1 <0>         0.1678
     10 C7         -0.7599   -3.5546    3.0482 C.3       1 <0>        -0.0277
     11 N2         -1.1547   -3.7347    4.4516 N.4       1 <0>        -0.6296
     12 C8          0.9207   -1.8289    3.6370 C.ar      1 <0>        -0.1772
     13 C9          0.8170   -1.1654    4.8469 C.ar      1 <0>        -0.1042
     14 C10         1.9567   -0.9122    5.5911 C.ar      1 <0>         0.1052
     15 C11         3.1973   -1.3223    5.1244 C.ar      1 <0>         0.1227
     16 C12         3.2982   -1.9864    3.9131 C.ar      1 <0>        -0.0286
     17 C13         2.1555   -2.2425    3.1739 C.ar      1 <0>        -0.1034
     18 Cl1         4.8493   -2.5004    3.3270 Cl        1 <0>         0.0023
     19 O1          4.3146   -1.0681    5.8661 O.3       1 <0>        -0.3026
     20 C14         4.6926    0.3058    5.9753 C.3       1 <0>         0.0601
     21 C15         3.9275    0.9881    7.0984 C.3       1 <0>        -0.1973
     22 C16         2.4330    1.0525    6.8250 C.3       1 <0>         0.0607
     23 O2          1.8678   -0.2594    6.7862 O.3       1 <0>        -0.3102
     24 H3          0.8309    1.8613   -0.2088 H         1 <0>         0.0756
     25 H4         -0.6340    1.7183   -1.2098 H         1 <0>         0.0852
     26 H5         -0.7729    1.8162    0.5620 H         1 <0>         0.0681
     27 H6         -2.1916   -0.0898    0.4206 H         1 <0>         0.1045
     28 H7         -1.8676   -0.9082   -1.1427 H         1 <0>         0.1223
     29 H8         -2.1014   -2.2618    1.2762 H         1 <0>         0.1324
     30 H9         -1.1451   -2.8658   -0.1058 H         1 <0>         0.1455
     31 H10         1.5855   -0.5407    1.1570 H         1 <0>         0.1403
     32 H11         0.1481    0.1317    1.9860 H         1 <0>         0.1383
     33 H12        -1.6073   -3.7798    2.4006 H         1 <0>         0.1625
     34 H13         0.0653   -4.2270    2.8137 H         1 <0>         0.1601
     35 H14        -0.3477   -3.6175    5.0457 H         1 <0>         0.4450
     36 H15        -1.8539   -3.0491    4.6949 H         1 <0>         0.4428
     37 H16        -0.1491   -0.8461    5.2090 H         1 <0>         0.1551
     38 H17         2.2299   -2.7635    2.2308 H         1 <0>         0.1432
     39 H18         5.7614    0.3686    6.1796 H         1 <0>         0.1261
     40 H19         4.4774    0.8130    5.0348 H         1 <0>         0.0651
     41 H20         4.0935    0.4373    8.0242 H         1 <0>         0.0966
     42 H21         4.3083    2.0021    7.2199 H         1 <0>         0.1104
     43 H22         1.9486    1.6288    7.6132 H         1 <0>         0.1241
     44 H23         2.2645    1.5442    5.8668 H         1 <0>         0.0644
     45 H24         0.6594   -2.5729    1.0929 H         1 <0>         0.4297
     46 H25        -1.5338   -4.6612    4.5781 H         1 <0>         0.4584
@<TRIPOS>BOND
     1    1    2 1
     2    1   24 1
     3    1   25 1
     4    1   26 1
     5    2    3 1
     6    2    7 1
     7    2    4 1
     8    4    5 1
     9    4   27 1
    10    4   28 1
    11    5    6 1
    12    5   29 1
    13    5   30 1
    14    6    7 1
    15    6    8 1
    16    6   45 1
    17    7   31 1
    18    7   32 1
    19    8    9 1
    20    8   10 1
    21    8   12 1
    22   10   11 1
    23   10   33 1
    24   10   34 1
    25   11   35 1
    26   11   36 1
    27   11   46 1
    28   12   17 ar
    29   12   13 ar
    30   13   14 ar
    31   13   37 1
    32   14   23 1
    33   14   15 ar
    34   15   16 ar
    35   15   19 1
    36   16   17 ar
    37   16   18 1
    38   17   38 1
    39   19   20 1
    40   20   21 1
    41   20   39 1
    42   20   40 1
    43   21   22 1
    44   21   41 1
    45   21   42 1
    46   22   23 1
    47   22   43 1
    48   22   44 1
@<TRIPOS>MOLECULE
ZINC43364756
   54    55     0     0     0
SMALL
USER_CHARGES

@<TRIPOS>ATOM
      1 C1          0.1017    1.5859    0.1260 C.3       1 <0>        -0.1781
      2 C2          0.1254    0.0582    0.0456 C.3       1 <0>        -0.1413
      3 C3          0.7448   -0.5102    1.3239 C.3       1 <0>         0.0262
      4 H1          0.2043   -0.1289    2.1903 H         1 <0>         0.1451
      5 C4          0.6554   -2.0374    1.2986 C.3       1 <0>         0.1671
      6 H2          1.1960   -2.4187    0.4323 H         1 <0>         0.1444
      7 C5          1.2655   -2.5972    2.5577 C.2       1 <0>        -0.1458
      8 C6          2.4376   -3.2521    2.6401 C.2       1 <0>        -0.1501
      9 C7          2.6198   -3.5964    3.9993 C.2       1 <0>        -0.2127
     10 C8          1.5482   -3.1312    4.6661 C.2       1 <0>         0.0308
     11 O1          0.7340   -2.5219    3.7888 O.3       1 <0>        -0.1748
     12 C9          1.3051   -3.2660    6.1473 C.3       1 <0>        -0.0907
     13 N1         -0.7537   -2.4441    1.2145 N.3       1 <0>        -0.5152
     14 C10        -1.5340   -1.8719    2.3208 C.3       1 <0>         0.0053
     15 C11        -3.0033   -2.2693    2.1636 C.3       1 <0>        -0.0107
     16 N2         -3.1178   -3.7337    2.1670 N.4       1 <0>        -0.3806
     17 C12        -2.3535   -4.2889    1.0422 C.3       1 <0>        -0.0119
     18 C13        -0.8787   -3.9083    1.1900 C.3       1 <0>         0.0304
     19 C14        -4.5303   -4.1145    2.0342 C.3       1 <0>         0.0553
     20 C15        -5.0860   -3.5624    0.7200 C.3       1 <0>        -0.1774
     21 C16        -4.6498   -5.6398    2.0377 C.3       1 <0>        -0.1792
     22 C17        -5.3263   -3.5379    3.2068 C.3       1 <0>        -0.1785
     23 N3          2.1539   -0.1035    1.4081 N.4       1 <0>        -0.6350
     24 H3          1.1198    1.9599    0.2338 H         1 <0>         0.0550
     25 H4         -0.3396    1.9908   -0.7847 H         1 <0>         0.0898
     26 H5         -0.4921    1.8953    0.9861 H         1 <0>         0.0714
     27 H6         -0.8927   -0.3158   -0.0622 H         1 <0>         0.1219
     28 H7          0.7192   -0.2512   -0.8145 H         1 <0>         0.0956
     29 H8          3.1101   -3.4732    1.8245 H         1 <0>         0.1599
     30 H9          3.4583   -4.1306    4.4211 H         1 <0>         0.1627
     31 H10         1.7333   -2.4078    6.6653 H         1 <0>         0.0958
     32 H11         0.2326   -3.3070    6.3372 H         1 <0>         0.0812
     33 H12         1.7737   -4.1806    6.5106 H         1 <0>         0.1028
     34 H13        -1.1537   -2.2524    3.2689 H         1 <0>         0.0859
     35 H14        -1.4471   -0.7856    2.3034 H         1 <0>         0.1224
     36 H15        -3.5815   -1.8578    2.9910 H         1 <0>         0.1426
     37 H16        -3.3870   -1.8771    1.2218 H         1 <0>         0.1437
     38 H17        -2.4499   -5.3746    1.0381 H         1 <0>         0.1441
     39 H18        -2.7405   -3.8863    0.1061 H         1 <0>         0.1451
     40 H19        -0.3139   -4.3075    0.3476 H         1 <0>         0.1305
     41 H20        -0.4877   -4.3222    2.1194 H         1 <0>         0.0703
     42 H21        -4.5189   -3.9732   -0.1153 H         1 <0>         0.0827
     43 H22        -6.1341   -3.8449    0.6215 H         1 <0>         0.1085
     44 H23        -5.0009   -2.4757    0.7175 H         1 <0>         0.0815
     45 H24        -4.2539   -6.0332    2.9740 H         1 <0>         0.0818
     46 H25        -5.6979   -5.9224    1.9392 H         1 <0>         0.1104
     47 H26        -4.0827   -6.0506    1.2024 H         1 <0>         0.0826
     48 H27        -5.2412   -2.4512    3.2043 H         1 <0>         0.0815
     49 H28        -6.3744   -3.8205    3.1083 H         1 <0>         0.1103
     50 H29        -4.9304   -3.9312    4.1431 H         1 <0>         0.0817
     51 H30         2.2129    0.9036    1.4248 H         1 <0>         0.4436
     52 H31         2.5624   -0.4784    2.2511 H         1 <0>         0.4360
     53 H32         2.6543   -0.4565    0.6061 H         1 <0>         0.4371
     54 H33        -2.7518   -4.0975    3.0341 H         1 <0>         0.4189
@<TRIPOS>BOND
     1    1    2 1
     2    1   24 1
     3    1   25 1
     4    1   26 1
     5    2    3 1
     6    2   27 1
     7    2   28 1
     8    3    4 1
     9    3    5 1
    10    3   23 1
    11    5    6 1
    12    5    7 1
    13    5   13 1
    14    7   11 1
    15    7    8 2
    16    8    9 1
    17    8   29 1
    18    9   10 2
    19    9   30 1
    20   10   11 1
    21   10   12 1
    22   12   31 1
    23   12   32 1
    24   12   33 1
    25   13   18 1
    26   13   14 1
    27   14   15 1
    28   14   34 1
    29   14   35 1
    30   15   16 1
    31   15   36 1
    32   15   37 1
    33   16   17 1
    34   16   19 1
    35   16   54 1
    36   17   18 1
    37   17   38 1
    38   17   39 1
    39   18   40 1
    40   18   41 1
    41   19   20 1
    42   19   21 1
    43   19   22 1
    44   20   42 1
    45   20   43 1
    46   20   44 1
    47   21   45 1
    48   21   46 1
    49   21   47 1
    50   22   48 1
    51   22   49 1
    52   22   50 1
    53   23   51 1
    54   23   52 1
    55   23   53 1
@<TRIPOS>MOLECULE
ZINC48971917
   55    56     0     0     0
SMALL
USER_CHARGES

@<TRIPOS>ATOM
      1 C1         -0.0498    1.4651   -0.7708 C.3       1 <0>        -0.1643
      2 C2          0.0078   -0.0502   -0.5670 C.3       1 <0>        -0.1167
      3 C3         -1.4131   -0.6006   -0.4292 C.3       1 <0>        -0.0563
      4 C4         -2.0977    0.0502    0.7744 C.3       1 <0>        -0.1537
      5 C5         -2.2070   -0.2866   -1.6989 C.3       1 <0>        -0.1561
      6 C6         -1.3555   -2.1159   -0.2254 C.3       1 <0>        -0.0751
      7 H1         -0.7899   -2.3395    0.6792 H         1 <0>         0.0912
      8 C7         -0.6709   -2.7667   -1.4290 C.3       1 <0>        -0.1294
      9 C8         -0.6133   -4.2820   -1.2251 C.3       1 <0>        -0.1385
     10 C9         -2.0342   -4.8324   -1.0873 C.3       1 <0>         0.0070
     11 H2         -2.5998   -4.6087   -1.9919 H         1 <0>         0.1670
     12 C10        -2.7188   -4.1816    0.1162 C.3       1 <0>         0.0055
     13 H3         -2.1532   -4.4053    1.0208 H         1 <0>         0.1634
     14 C11        -2.7764   -2.6663   -0.0876 C.3       1 <0>        -0.1460
     15 N1         -4.0830   -4.7101    0.2485 N.4       1 <0>        -0.3956
     16 C12        -4.6889   -4.1978    1.4848 C.3       1 <0>        -0.0539
     17 C13        -4.8873   -4.2834   -0.9043 C.3       1 <0>         0.0716
     18 C14        -6.2490   -4.9251   -0.8319 C.2       1 <0>        -0.3372
     19 C15        -6.6067   -6.1605   -1.3817 C.2       1 <0>         0.0616
     20 N2         -7.8686   -6.3775   -1.1127 N.2       1 <0>        -0.2596
     21 N3         -8.3544   -5.2855   -0.3820 N.pl3     1 <0>        -0.3406
     22 C16        -7.3399   -4.4108   -0.2185 C.2       1 <0>         0.1125
     23 C17        -9.7210   -5.1242    0.1207 C.3       1 <0>         0.0797
     24 N4         -1.9789   -6.2873   -0.8916 N.4       1 <0>        -0.6476
     25 H4          0.9625    1.8573   -0.8689 H         1 <0>         0.0614
     26 H5         -0.6154    1.6888   -1.6753 H         1 <0>         0.0601
     27 H6         -0.5375    1.9288    0.0867 H         1 <0>         0.0606
     28 H7          0.4955   -0.5138   -1.4244 H         1 <0>         0.0665
     29 H8          0.5734   -0.2738    0.3376 H         1 <0>         0.0660
     30 H9         -2.1387    1.1298    0.6292 H         1 <0>         0.0727
     31 H10        -3.1099   -0.3419    0.8725 H         1 <0>         0.0507
     32 H11        -1.5321   -0.1734    1.6789 H         1 <0>         0.0608
     33 H12        -1.7193   -0.7503   -2.5563 H         1 <0>         0.0614
     34 H13        -3.2193   -0.6788   -1.6007 H         1 <0>         0.0507
     35 H14        -2.2480    0.7929   -1.8441 H         1 <0>         0.0725
     36 H15        -1.2365   -2.5430   -2.3335 H         1 <0>         0.0891
     37 H16         0.3414   -2.3746   -1.5271 H         1 <0>         0.1074
     38 H17        -0.1256   -4.7456   -2.0826 H         1 <0>         0.1131
     39 H18        -0.0477   -4.5057   -0.3206 H         1 <0>         0.1023
     40 H19        -3.2641   -2.2026    0.7699 H         1 <0>         0.1151
     41 H20        -3.3420   -2.4426   -0.9921 H         1 <0>         0.1065
     42 H21        -5.6657   -4.6593    1.6291 H         1 <0>         0.1323
     43 H22        -4.0452   -4.4374    2.3312 H         1 <0>         0.1309
     44 H23        -4.8052   -3.1165    1.4115 H         1 <0>         0.1332
     45 H24        -4.9956   -3.1989   -0.8903 H         1 <0>         0.1477
     46 H25        -4.3910   -4.5871   -1.8260 H         1 <0>         0.1314
     47 H26        -5.9541   -6.8211   -1.9331 H         1 <0>         0.1889
     48 H27        -7.3904   -3.4679    0.3058 H         1 <0>         0.1882
     49 H28        -9.7928   -5.5508    1.1212 H         1 <0>         0.0953
     50 H29        -9.9713   -4.0640    0.1590 H         1 <0>         0.1045
     51 H30       -10.4156   -5.6377   -0.5440 H         1 <0>         0.1077
     52 H31        -1.4627   -6.4940   -0.0497 H         1 <0>         0.4448
     53 H32        -2.9163   -6.6514   -0.8095 H         1 <0>         0.4250
     54 H33        -1.5196   -6.7156   -1.6814 H         1 <0>         0.4592
     55 H34        -4.0514   -5.7180    0.2820 H         1 <0>         0.4054
@<TRIPOS>BOND
     1    1    2 1
     2    1   25 1
     3    1   26 1
     4    1   27 1
     5    2    3 1
     6    2   28 1
     7    2   29 1
     8    3    4 1
     9    3    5 1
    10    3    6 1
    11    4   30 1
    12    4   31 1
    13    4   32 1
    14    5   33 1
    15    5   34 1
    16    5   35 1
    17    6    7 1
    18    6   14 1
    19    6    8 1
    20    8    9 1
    21    8   36 1
    22    8   37 1
    23    9   10 1
    24    9   38 1
    25    9   39 1
    26   10   11 1
    27   10   12 1
    28   10   24 1
    29   12   13 1
    30   12   14 1
    31   12   15 1
    32   14   40 1
    33   14   41 1
    34   15   16 1
    35   15   17 1
    36   15   55 1
    37   16   42 1
    38   16   43 1
    39   16   44 1
    40   17   18 1
    41   17   45 1
    42   17   46 1
    43   18   22 2
    44   18   19 1
    45   19   20 2
    46   19   47 1
    47   20   21 1
    48   21   22 1
    49   21   23 1
    50   22   48 1
    51   23   49 1
    52   23   50 1
    53   23   51 1
    54   24   52 1
    55   24   53 1
    56   24   54 1
@<TRIPOS>MOLECULE
ZINC61641921
   51    52     0     0     0
SMALL
USER_CHARGES

@<TRIPOS>ATOM
      1 C1         -3.3144    1.6612   -0.6957 C.3       1 <0>        -0.1738
      2 C2         -2.2133    0.6232   -0.9216 C.3       1 <0>        -0.1517
      3 C3         -2.3885   -0.5299    0.0686 C.3       1 <0>         0.0293
      4 H1         -3.3953   -0.9374   -0.0228 H         1 <0>         0.1606
      5 C4         -1.3652   -1.6252   -0.2378 C.3       1 <0>         0.1117
      6 H2         -0.3780   -1.3031    0.0934 H         1 <0>         0.0851
      7 C5         -1.3370   -1.8854   -1.7219 C.ar      1 <0>        -0.1318
      8 C6         -2.5059   -2.1976   -2.3907 C.ar      1 <0>        -0.0661
      9 C7         -2.4814   -2.4359   -3.7518 C.ar      1 <0>        -0.1488
     10 C8         -1.2854   -2.3618   -4.4456 C.ar      1 <0>         0.1346
     11 C9         -0.1153   -2.0490   -3.7747 C.ar      1 <0>        -0.1466
     12 C10        -0.1432   -1.8059   -2.4145 C.ar      1 <0>        -0.0726
     13 F1         -1.2602   -2.5950   -5.7761 F         1 <0>        -0.1214
     14 N1         -1.7407   -2.8575    0.4682 N.3       1 <0>        -0.5141
     15 C11        -1.0689   -4.0335   -0.1246 C.3       1 <0>         0.0358
     16 C12         0.1568   -4.2904    0.7872 C.3       1 <0>        -0.1492
     17 C13        -0.4183   -3.9520    2.1878 C.3       1 <0>        -0.1530
     18 C14        -1.3786   -2.7800    1.8954 C.3       1 <0>         0.0227
     19 H3         -0.8805   -1.8324    2.1007 H         1 <0>         0.0689
     20 C15        -2.6351   -2.9087    2.7589 C.3       1 <0>        -0.0144
     21 N2         -2.2791   -2.7239    4.1721 N.4       1 <0>        -0.3898
     22 C16        -1.7675   -1.3618    4.3741 C.3       1 <0>        -0.0747
     23 C17        -3.4698   -2.9287    5.0078 C.3       1 <0>        -0.0526
     24 N3         -2.1824   -0.0361    1.4367 N.4       1 <0>        -0.6490
     25 H4         -3.1895    2.4827   -1.4012 H         1 <0>         0.0928
     26 H5         -4.2885    1.1965   -0.8479 H         1 <0>         0.0764
     27 H6         -3.2496    2.0439    0.3228 H         1 <0>         0.0493
     28 H7         -2.2781    0.2405   -1.9401 H         1 <0>         0.1254
     29 H8         -1.2391    1.0880   -0.7694 H         1 <0>         0.0937
     30 H9         -3.4386   -2.2557   -1.8493 H         1 <0>         0.1369
     31 H10        -3.3946   -2.6802   -4.2740 H         1 <0>         0.1479
     32 H11         0.8181   -1.9912   -4.3148 H         1 <0>         0.1486
     33 H12         0.7686   -1.5575   -1.8918 H         1 <0>         0.1355
     34 H13        -1.7356   -4.8958   -0.1161 H         1 <0>         0.1032
     35 H14        -0.7454   -3.8130   -1.1419 H         1 <0>         0.1037
     36 H15         0.4703   -5.3331    0.7354 H         1 <0>         0.1005
     37 H16         0.9802   -3.6235    0.5317 H         1 <0>         0.0800
     38 H17        -0.9624   -4.8032    2.5970 H         1 <0>         0.0939
     39 H18         0.3763   -3.6394    2.8654 H         1 <0>         0.0929
     40 H19        -3.3582   -2.1483    2.4639 H         1 <0>         0.1203
     41 H20        -3.0712   -3.8980    2.6205 H         1 <0>         0.1613
     42 H21        -2.5461   -0.6406    4.1255 H         1 <0>         0.1156
     43 H22        -1.4738   -1.2347    5.4160 H         1 <0>         0.1508
     44 H23        -0.9029   -1.1992    3.7305 H         1 <0>         0.1172
     45 H24        -3.8494   -3.9394    4.8579 H         1 <0>         0.1344
     46 H25        -3.2056   -2.7915    6.0564 H         1 <0>         0.1360
     47 H26        -4.2377   -2.2071    4.7292 H         1 <0>         0.1254
     48 H27        -2.6250    0.8648    1.5394 H         1 <0>         0.4423
     49 H28        -2.5871   -0.6864    2.0935 H         1 <0>         0.4089
     50 H29        -1.1936    0.0524    1.6169 H         1 <0>         0.4298
     51 H30        -1.5682   -3.3919    4.4300 H         1 <0>         0.4381
@<TRIPOS>BOND
     1    1    2 1
     2    1   25 1
     3    1   26 1
     4    1   27 1
     5    2    3 1
     6    2   28 1
     7    2   29 1
     8    3    4 1
     9    3    5 1
    10    3   24 1
    11    5    6 1
    12    5    7 1
    13    5   14 1
    14    7   12 ar
    15    7    8 ar
    16    8    9 ar
    17    8   30 1
    18    9   10 ar
    19    9   31 1
    20   10   11 ar
    21   10   13 1
    22   11   12 ar
    23   11   32 1
    24   12   33 1
    25   14   18 1
    26   14   15 1
    27   15   16 1
    28   15   34 1
    29   15   35 1
    30   16   17 1
    31   16   36 1
    32   16   37 1
    33   17   18 1
    34   17   38 1
    35   17   39 1
    36   18   19 1
    37   18   20 1
    38   20   21 1
    39   20   40 1
    40   20   41 1
    41   21   22 1
    42   21   23 1
    43   21   51 1
    44   22   42 1
    45   22   43 1
    46   22   44 1
    47   23   45 1
    48   23   46 1
    49   23   47 1
    50   24   48 1
    51   24   49 1
    52   24   50 1
@<TRIPOS>MOLECULE
ZINC62978449
   46    48     0     0     0
SMALL
USER_CHARGES

@<TRIPOS>ATOM
      1 C1          1.0570   -0.1131   -0.5394 C.ar      1 <0>        -0.1153
      2 C2          2.1629    0.6986   -0.3667 C.ar      1 <0>        -0.0706
      3 C3          2.1239    1.7354    0.5473 C.ar      1 <0>        -0.0594
      4 C4          0.9756    1.9604    1.2899 C.ar      1 <0>         0.1252
      5 C5         -0.1303    1.1467    1.1154 C.ar      1 <0>        -0.1293
      6 C6         -0.0885    0.1108    0.2010 C.ar      1 <0>        -0.1197
      7 C7         -1.2930   -0.7747    0.0108 C.3       1 <0>         0.0916
      8 H1         -2.1871   -0.2485    0.3450 H         1 <0>         0.1291
      9 C8         -1.4348   -1.1316   -1.4702 C.3       1 <0>        -0.0008
     10 N1         -2.5355   -2.0895   -1.6398 N.4       1 <0>        -0.6316
     11 N2         -1.1258   -2.0043    0.7970 N.3       1 <0>        -0.5188
     12 C9          0.1760   -2.6542    0.4983 C.3       1 <0>         0.0009
     13 C10         0.4086   -3.5647    1.7301 C.3       1 <0>        -0.1372
     14 C11        -0.1365   -2.7115    2.8984 C.3       1 <0>         0.0188
     15 H2          0.6784   -2.1832    3.3933 H         1 <0>         0.1472
     16 C12        -1.1056   -1.7083    2.2459 C.3       1 <0>         0.0121
     17 N3         -0.8506   -3.5614    3.8605 N.4       1 <0>        -0.3888
     18 C13         0.0923   -4.5134    4.5016 C.3       1 <0>        -0.0056
     19 C14        -0.6340   -4.9023    5.8137 C.3       1 <0>        -0.1456
     20 C15        -1.2998   -3.5759    6.2466 C.3       1 <0>        -0.1457
     21 C16        -1.4006   -2.7375    4.9588 C.3       1 <0>        -0.0111
     22 F1          0.9359    2.9727    2.1837 F         1 <0>        -0.1104
     23 Cl1         3.5125    2.7544    0.7648 Cl        1 <0>        -0.0106
     24 H3          1.0868   -0.9199   -1.2567 H         1 <0>         0.1421
     25 H4          3.0576    0.5224   -0.9455 H         1 <0>         0.1568
     26 H5         -1.0257    1.3210    1.6935 H         1 <0>         0.1500
     27 H6         -1.6473   -0.2288   -2.0428 H         1 <0>         0.1523
     28 H7         -0.5065   -1.5780   -1.8269 H         1 <0>         0.1379
     29 H8         -2.6291   -2.3249   -2.6165 H         1 <0>         0.4437
     30 H9         -2.3388   -2.9252   -1.1098 H         1 <0>         0.4377
     31 H10         0.1090   -3.2491   -0.4126 H         1 <0>         0.1065
     32 H11         0.9677   -1.9096    0.4153 H         1 <0>         0.0934
     33 H12        -0.1543   -4.4933    1.6352 H         1 <0>         0.1005
     34 H13         1.4710   -3.7684    1.8641 H         1 <0>         0.1129
     35 H14        -0.7536   -0.6902    2.4121 H         1 <0>         0.0985
     36 H15        -2.1047   -1.8316    2.6640 H         1 <0>         0.1095
     37 H16         0.2425   -5.3895    3.8708 H         1 <0>         0.1368
     38 H17         1.0430   -4.0262    4.7179 H         1 <0>         0.1349
     39 H18        -1.3864   -5.6682    5.6257 H         1 <0>         0.1002
     40 H19         0.0806   -5.2383    6.5651 H         1 <0>         0.1208
     41 H20        -2.2932   -3.7661    6.6529 H         1 <0>         0.1084
     42 H21        -0.6804   -3.0645    6.9834 H         1 <0>         0.1068
     43 H22        -0.8174   -1.8227    5.0646 H         1 <0>         0.1300
     44 H23        -2.4434   -2.4947    4.7545 H         1 <0>         0.1321
     45 H24        -3.3948   -1.6763   -1.3096 H         1 <0>         0.4382
     46 H25        -1.5928   -4.0641    3.3974 H         1 <0>         0.4256
@<TRIPOS>BOND
     1    1    6 ar
     2    1    2 ar
     3    1   24 1
     4    2    3 ar
     5    2   25 1
     6    3    4 ar
     7    3   23 1
     8    4    5 ar
     9    4   22 1
    10    5    6 ar
    11    5   26 1
    12    6    7 1
    13    7    8 1
    14    7    9 1
    15    7   11 1
    16    9   10 1
    17    9   27 1
    18    9   28 1
    19   10   29 1
    20   10   30 1
    21   10   45 1
    22   11   16 1
    23   11   12 1
    24   12   13 1
    25   12   31 1
    26   12   32 1
    27   13   14 1
    28   13   33 1
    29   13   34 1
    30   14   15 1
    31   14   16 1
    32   14   17 1
    33   16   35 1
    34   16   36 1
    35   17   21 1
    36   17   18 1
    37   17   46 1
    38   18   19 1
    39   18   37 1
    40   18   38 1
    41   19   20 1
    42   19   39 1
    43   19   40 1
    44   20   21 1
    45   20   41 1
    46   20   42 1
    47   21   43 1
    48   21   44 1
@<TRIPOS>MOLECULE
ZINC37877418
   53    54     0     0     0
SMALL
USER_CHARGES

@<TRIPOS>ATOM
      1 C1         -0.0187    1.5258    0.0104 C.3       1 <0>        -0.1869
      2 C2          0.0021   -0.0041    0.0020 C.3       1 <0>         0.0272
      3 H1          0.5123   -0.3551   -0.8949 H         1 <0>         0.1397
      4 C3         -1.4337   -0.5331    0.0113 C.3       1 <0>        -0.1425
      5 C4         -1.4079   -2.0642    0.0026 C.3       1 <0>        -0.1418
      6 C5         -0.5995   -2.5582    1.2058 C.3       1 <0>        -0.1472
      7 C6          0.8054   -1.9542    1.1523 C.3       1 <0>        -0.0120
      8 N1          0.7134   -0.4897    1.1906 N.4       1 <0>        -0.3806
      9 C7          2.0657    0.0833    1.2183 C.3       1 <0>        -0.0130
     10 C8          2.7645   -0.3212    2.5179 C.3       1 <0>        -0.1849
     11 C9          4.1730    0.2756    2.5467 C.3       1 <0>        -0.0040
     12 N2          4.8439   -0.1128    3.7945 N.4       1 <0>        -0.5129
     13 C10         6.1963    0.4602    3.8222 C.3       1 <0>        -0.0412
     14 C11         6.8950    0.0557    5.1218 C.3       1 <0>         0.1150
     15 C12         6.0322    0.4705    6.3153 C.3       1 <0>        -0.1597
     16 C13         6.7309    0.0660    7.6149 C.3       1 <0>        -0.1171
     17 C14         8.0901    0.7632    7.7015 C.3       1 <0>        -0.1278
     18 C15         8.9530    0.3483    6.5080 C.3       1 <0>        -0.1210
     19 C16         8.2542    0.7528    5.2084 C.3       1 <0>        -0.1056
     20 O1          7.0841   -1.3606    5.1402 O.3       1 <0>        -0.5257
     21 H2          1.0039    1.9031    0.0027 H         1 <0>         0.0799
     22 H3         -0.5459    1.8868   -0.8726 H         1 <0>         0.1125
     23 H4         -0.5289    1.8773    0.9072 H         1 <0>         0.0831
     24 H5         -1.9449   -0.1828    0.9081 H         1 <0>         0.0900
     25 H6         -1.9601   -0.1729   -0.8726 H         1 <0>         0.1174
     26 H7         -2.4267   -2.4464    0.0663 H         1 <0>         0.1002
     27 H8         -0.9424   -2.4157   -0.9182 H         1 <0>         0.0844
     28 H9         -1.0933   -2.2500    2.1274 H         1 <0>         0.0890
     29 H10        -0.5296   -3.6455    1.1757 H         1 <0>         0.1164
     30 H11         1.3836   -2.3040    2.0074 H         1 <0>         0.1260
     31 H12         1.2983   -2.2632    0.2305 H         1 <0>         0.1326
     32 H13         2.6360   -0.2901    0.3677 H         1 <0>         0.1414
     33 H14         2.0011    1.1700    1.1635 H         1 <0>         0.1459
     34 H15         2.1942    0.0522    3.3685 H         1 <0>         0.1117
     35 H16         2.8291   -1.4079    2.5727 H         1 <0>         0.1116
     36 H17         4.7433   -0.0978    1.6962 H         1 <0>         0.1455
     37 H18         4.1084    1.3623    2.4920 H         1 <0>         0.1455
     38 H19         4.3160    0.2329    4.5819 H         1 <0>         0.4305
     39 H20         6.7666    0.0868    2.9717 H         1 <0>         0.1478
     40 H21         6.1316    1.5469    3.7675 H         1 <0>         0.1480
     41 H22         5.8880    1.5509    6.3013 H         1 <0>         0.0908
     42 H23         5.0639   -0.0261    6.2536 H         1 <0>         0.0543
     43 H24         6.1162    0.3616    8.4651 H         1 <0>         0.0753
     44 H25         6.8752   -1.0143    7.6289 H         1 <0>         0.0760
     45 H26         7.9459    1.8435    7.6875 H         1 <0>         0.0664
     46 H27         8.5880    0.4750    8.6274 H         1 <0>         0.0768
     47 H28         9.9213    0.8450    6.5697 H         1 <0>         0.0780
     48 H29         9.0972   -0.7320    6.5220 H         1 <0>         0.0778
     49 H30         8.8690    0.4573    4.3582 H         1 <0>         0.0837
     50 H31         8.1100    1.8332    5.1945 H         1 <0>         0.0888
     51 H32         6.2624   -1.8678    5.0882 H         1 <0>         0.3650
     52 H33         0.2132   -0.2063    2.0198 H         1 <0>         0.4224
     53 H34         4.9037   -1.1187    3.8452 H         1 <0>         0.4267
@<TRIPOS>BOND
     1    1    2 1
     2    1   21 1
     3    1   22 1
     4    1   23 1
     5    2    3 1
     6    2    8 1
     7    2    4 1
     8    4    5 1
     9    4   24 1
    10    4   25 1
    11    5    6 1
    12    5   26 1
    13    5   27 1
    14    6    7 1
    15    6   28 1
    16    6   29 1
    17    7    8 1
    18    7   30 1
    19    7   31 1
    20    8    9 1
    21    8   52 1
    22    9   10 1
    23    9   32 1
    24    9   33 1
    25   10   11 1
    26   10   34 1
    27   10   35 1
    28   11   12 1
    29   11   36 1
    30   11   37 1
    31   12   13 1
    32   12   38 1
    33   12   53 1
    34   13   14 1
    35   13   39 1
    36   13   40 1
    37   14   19 1
    38   14   15 1
    39   14   20 1
    40   15   16 1
    41   15   41 1
    42   15   42 1
    43   16   17 1
    44   16   43 1
    45   16   44 1
    46   17   18 1
    47   17   45 1
    48   17   46 1
    49   18   19 1
    50   18   47 1
    51   18   48 1
    52   19   49 1
    53   19   50 1
    54   20   51 1
@<TRIPOS>MOLECULE
ZINC43364267
   43    44     0     0     0
SMALL
USER_CHARGES

@<TRIPOS>ATOM
      1 C1          0.5916    1.6860    0.5823 C.3       1 <0>        -0.0976
      2 C2          0.3220    0.2074    0.4729 C.2       1 <0>         0.0691
      3 C3          0.1378   -0.4762   -0.6708 C.2       1 <0>        -0.2116
      4 C4         -0.0830   -1.8254   -0.3106 C.2       1 <0>        -0.0740
      5 C5         -0.0206   -1.8856    1.0317 C.2       1 <0>        -0.1833
      6 O1          0.2307   -0.6525    1.5006 O.3       1 <0>        -0.2004
      7 C6         -0.1971   -3.1272    1.8673 C.3       1 <0>         0.1225
      8 H1         -0.0310   -4.0087    1.2480 H         1 <0>         0.2009
      9 C7         -1.6178   -3.1627    2.4343 C.3       1 <0>         0.0110
     10 H2         -1.7371   -4.0469    3.0605 H         1 <0>         0.1767
     11 C8         -2.6250   -3.2129    1.2837 C.3       1 <0>        -0.1877
     12 N1         -1.8539   -1.9569    3.2395 N.4       1 <0>        -0.6451
     13 N2          0.7709   -3.1156    2.9722 N.4       1 <0>        -0.3972
     14 C9          0.6506   -4.3611    3.7417 C.3       1 <0>        -0.0758
     15 C10         2.1316   -3.0045    2.4299 C.3       1 <0>         0.0506
     16 C11         3.1148   -2.8689    3.5640 C.ar      1 <0>        -0.2044
     17 C12         3.6051   -1.6235    3.9088 C.ar      1 <0>        -0.0618
     18 C13         4.5068   -1.4989    4.9489 C.ar      1 <0>        -0.1170
     19 C14         4.9195   -2.6197    5.6455 C.ar      1 <0>        -0.0451
     20 C15         4.4304   -3.8657    5.3029 C.ar      1 <0>        -0.1408
     21 C16         3.5229   -3.9911    4.2644 C.ar      1 <0>         0.1165
     22 F1          3.0404   -5.2083    3.9316 F         1 <0>        -0.1316
     23 H3          1.6666    1.8629    0.5481 H         1 <0>         0.1033
     24 H4          0.1114    2.2052   -0.2471 H         1 <0>         0.1110
     25 H5          0.1917    2.0595    1.5250 H         1 <0>         0.0883
     26 H6          0.1548   -0.0718   -1.6721 H         1 <0>         0.1737
     27 H7         -0.2670   -2.6495   -0.9840 H         1 <0>         0.1717
     28 H8         -2.4869   -4.1356    0.7199 H         1 <0>         0.1245
     29 H9         -3.6377   -3.1808    1.6856 H         1 <0>         0.1095
     30 H10        -2.4679   -2.3582    0.6258 H         1 <0>         0.0977
     31 H11        -1.7434   -1.1385    2.6598 H         1 <0>         0.4439
     32 H12        -2.7908   -1.9803    3.6134 H         1 <0>         0.4590
     33 H13         1.2786   -4.3010    4.6307 H         1 <0>         0.1411
     34 H14        -0.3879   -4.5053    4.0396 H         1 <0>         0.1240
     35 H15         0.9720   -5.2011    3.1260 H         1 <0>         0.1489
     36 H16         2.3659   -3.8976    1.8507 H         1 <0>         0.1490
     37 H17         2.1958   -2.1269    1.7866 H         1 <0>         0.1466
     38 H18         3.2837   -0.7474    3.3651 H         1 <0>         0.1421
     39 H19         4.8897   -0.5253    5.2174 H         1 <0>         0.1492
     40 H20         5.6247   -2.5212    6.4576 H         1 <0>         0.1534
     41 H21         4.7532   -4.7410    5.8470 H         1 <0>         0.1550
     42 H22         0.5837   -2.3284    3.5750 H         1 <0>         0.4101
     43 H23        -1.1897   -1.9238    3.9983 H         1 <0>         0.4242
@<TRIPOS>BOND
     1    1    2 1
     2    1   23 1
     3    1   24 1
     4    1   25 1
     5    2    6 1
     6    2    3 2
     7    3    4 1
     8    3   26 1
     9    4    5 2
    10    4   27 1
    11    5    6 1
    12    5    7 1
    13    7    8 1
    14    7    9 1
    15    7   13 1
    16    9   10 1
    17    9   11 1
    18    9   12 1
    19   11   28 1
    20   11   29 1
    21   11   30 1
    22   12   31 1
    23   12   32 1
    24   12   43 1
    25   13   14 1
    26   13   15 1
    27   13   42 1
    28   14   33 1
    29   14   34 1
    30   14   35 1
    31   15   16 1
    32   15   36 1
    33   15   37 1
    34   16   21 ar
    35   16   17 ar
    36   17   18 ar
    37   17   38 1
    38   18   19 ar
    39   18   39 1
    40   19   20 ar
    41   19   40 1
    42   20   21 ar
    43   20   41 1
    44   21   22 1
@<TRIPOS>MOLECULE
ZINC50563811
   52    54     0     0     0
SMALL
USER_CHARGES

@<TRIPOS>ATOM
      1 C1          3.8229   -2.9524   -1.7619 C.3       1 <0>        -0.1570
      2 C2          2.5766   -2.3629   -1.0985 C.3       1 <0>        -0.1020
      3 H1          2.5765   -1.2799   -1.2218 H         1 <0>         0.0933
      4 C3          1.3227   -2.9520   -1.7510 C.3       1 <0>        -0.1385
      5 C4          0.0834   -2.4159   -1.0286 C.3       1 <0>        -0.1437
      6 C5          0.1786   -2.7594    0.4595 C.3       1 <0>        -0.0353
      7 N1          1.3835   -2.1459    1.0308 N.4       1 <0>        -0.3904
      8 C6          2.5800   -2.7074    0.3924 C.3       1 <0>         0.0302
      9 H2          2.5812   -3.7906    0.5146 H         1 <0>         0.1486
     10 C7          3.8315   -2.1201    1.0481 C.3       1 <0>        -0.1915
     11 C8          1.4296   -2.4131    2.4746 C.3       1 <0>         0.0669
     12 H3          2.3376   -1.9809    2.8952 H         1 <0>         0.1652
     13 C9          0.2071   -1.7868    3.1484 C.3       1 <0>        -0.0284
     14 N2          0.1528   -0.3538    2.8298 N.4       1 <0>        -0.6506
     15 C10         1.4258   -3.9015    2.7104 C.ar      1 <0>        -0.2410
     16 C11         0.2678   -4.6316    2.5134 C.ar      1 <0>        -0.0586
     17 C12         0.2608   -5.9930    2.7286 C.ar      1 <0>        -0.1758
     18 C13         1.4225   -6.6459    3.1468 C.ar      1 <0>         0.2500
     19 C14         2.5776   -5.9051    3.3409 C.ar      1 <0>        -0.1624
     20 C15         2.5811   -4.5413    3.1187 C.ar      1 <0>        -0.0156
     21 C16         3.6793   -6.8401    3.7870 C.3       1 <0>        -0.0907
     22 C17         3.0157   -8.2264    3.8282 C.3       1 <0>         0.1024
     23 N3          1.6275   -7.9998    3.4174 N.pl3     1 <0>        -0.6044
     24 C18         0.6039   -9.0421    3.3076 C.3       1 <0>         0.0915
     25 H4          3.8224   -4.0354   -1.6383 H         1 <0>         0.0698
     26 H5          3.8190   -2.7080   -2.8242 H         1 <0>         0.0825
     27 H6          4.7150   -2.5339   -1.2960 H         1 <0>         0.0732
     28 H7          1.2871   -2.6609   -2.8008 H         1 <0>         0.1016
     29 H8          1.3480   -4.0390   -1.6736 H         1 <0>         0.0864
     30 H9          0.0311   -1.3339   -1.1498 H         1 <0>         0.0870
     31 H10        -0.8109   -2.8737   -1.4514 H         1 <0>         0.1204
     32 H11        -0.7023   -2.3793    0.9768 H         1 <0>         0.1210
     33 H12         0.2306   -3.8415    0.5795 H         1 <0>         0.1541
     34 H13         3.7809   -1.0317    1.0176 H         1 <0>         0.0796
     35 H14         3.8885   -2.4524    2.0846 H         1 <0>         0.0824
     36 H15         4.7166   -2.4579    0.5090 H         1 <0>         0.1186
     37 H16        -0.6976   -2.2743    2.7852 H         1 <0>         0.1583
     38 H17         0.2812   -1.9163    4.2282 H         1 <0>         0.1845
     39 H18         1.0294    0.0795    3.0783 H         1 <0>         0.4451
     40 H19        -0.0129   -0.2350    1.8416 H         1 <0>         0.4254
     41 H20        -0.6341   -4.1332    2.1901 H         1 <0>         0.1268
     42 H21        -0.6470   -6.5572    2.5736 H         1 <0>         0.1348
     43 H22         3.4873   -3.9733    3.2688 H         1 <0>         0.1318
     44 H23         4.4990   -6.8320    3.0687 H         1 <0>         0.0963
     45 H24         4.0377   -6.5603    4.7776 H         1 <0>         0.0975
     46 H25         3.5105   -8.9033    3.1318 H         1 <0>         0.0859
     47 H26         3.0495   -8.6319    4.8395 H         1 <0>         0.0864
     48 H27         0.6142   -9.4566    2.2995 H         1 <0>         0.0668
     49 H28         0.8121   -9.8332    4.0279 H         1 <0>         0.0862
     50 H29        -0.3762   -8.6120    3.5136 H         1 <0>         0.0764
     51 H30         1.3580   -1.1492    0.8759 H         1 <0>         0.3978
     52 H31        -0.5956    0.0784    3.3506 H         1 <0>         0.4613
@<TRIPOS>BOND
     1    1    2 1
     2    1   25 1
     3    1   26 1
     4    1   27 1
     5    2    3 1
     6    2    8 1
     7    2    4 1
     8    4    5 1
     9    4   28 1
    10    4   29 1
    11    5    6 1
    12    5   30 1
    13    5   31 1
    14    6    7 1
    15    6   32 1
    16    6   33 1
    17    7    8 1
    18    7   11 1
    19    7   51 1
    20    8    9 1
    21    8   10 1
    22   10   34 1
    23   10   35 1
    24   10   36 1
    25   11   12 1
    26   11   13 1
    27   11   15 1
    28   13   14 1
    29   13   37 1
    30   13   38 1
    31   14   39 1
    32   14   40 1
    33   14   52 1
    34   15   20 ar
    35   15   16 ar
    36   16   17 ar
    37   16   41 1
    38   17   18 ar
    39   17   42 1
    40   18   23 1
    41   18   19 ar
    42   19   20 ar
    43   19   21 1
    44   20   43 1
    45   21   22 1
    46   21   44 1
    47   21   45 1
    48   22   23 1
    49   22   46 1
    50   22   47 1
    51   23   24 1
    52   24   48 1
    53   24   49 1
    54   24   50 1
@<TRIPOS>MOLECULE
ZINC53863753
   53    54     0     0     0
SMALL
USER_CHARGES

@<TRIPOS>ATOM
      1 C1          1.1072    1.2885    0.3040 C.3       1 <0>        -0.1588
      2 C2          0.8186   -0.2075    0.4440 C.3       1 <0>        -0.0986
      3 H1         -0.2447   -0.3887    0.2871 H         1 <0>         0.0744
      4 C3          1.6272   -0.9826   -0.5983 C.3       1 <0>        -0.1193
      5 C4          1.3386   -2.4786   -0.4584 C.3       1 <0>        -0.1479
      6 C5          1.7340   -2.9453    0.9440 C.3       1 <0>         0.0298
      7 H2          2.7973   -2.7641    1.1009 H         1 <0>         0.1633
      8 C6          0.9254   -2.1702    1.9863 C.3       1 <0>        -0.1256
      9 H3          1.2071   -2.5027    2.9854 H         1 <0>         0.1163
     10 C7          1.2140   -0.6742    1.8464 C.3       1 <0>        -0.1263
     11 C8         -0.5671   -2.4245    1.7661 C.3       1 <0>        -0.0433
     12 N1         -1.2633   -2.4048    3.0596 N.4       1 <0>        -0.3762
     13 C9         -1.4722   -1.0141    3.4800 C.3       1 <0>        -0.0189
     14 C10        -2.1241   -0.9882    4.8641 C.3       1 <0>        -0.1468
     15 C11        -3.4722   -1.7120    4.8011 C.3       1 <0>        -0.1409
     16 C12        -3.2509   -3.1387    4.2904 C.3       1 <0>        -0.1446
     17 C13        -2.5573   -3.0850    2.9275 C.3       1 <0>         0.0255
     18 H4         -3.1840   -2.5388    2.2226 H         1 <0>         0.1455
     19 C14        -2.3343   -4.5085    2.4130 C.3       1 <0>        -0.1471
     20 C15        -3.6836   -5.2143    2.2644 C.3       1 <0>         0.0743
     21 O1         -3.4689   -6.5867    1.9291 O.3       1 <0>        -0.5749
     22 N2          1.4569   -4.3816    1.0784 N.4       1 <0>        -0.5155
     23 C16         2.3212   -5.1350    0.1600 C.3       1 <0>        -0.0551
     24 H5          2.1705    1.4696    0.4609 H         1 <0>         0.0671
     25 H6          0.8255    1.6210   -0.6951 H         1 <0>         0.0706
     26 H7          0.5311    1.8407    1.0466 H         1 <0>         0.0642
     27 H8          1.3455   -0.6501   -1.5974 H         1 <0>         0.0964
     28 H9          2.6905   -0.8014   -0.4414 H         1 <0>         0.0859
     29 H10         0.2753   -2.6597   -0.6152 H         1 <0>         0.0859
     30 H11         1.9147   -3.0307   -1.2009 H         1 <0>         0.1041
     31 H12         2.2773   -0.4930    2.0033 H         1 <0>         0.1027
     32 H13         0.6379   -0.1220    2.5889 H         1 <0>         0.0927
     33 H14        -0.9769   -1.6471    1.1212 H         1 <0>         0.1596
     34 H15        -0.7042   -3.3975    1.2945 H         1 <0>         0.1193
     35 H16        -0.5123   -0.4994    3.5213 H         1 <0>         0.1385
     36 H17        -2.1221   -0.5121    2.7633 H         1 <0>         0.1352
     37 H18        -1.4749   -1.4898    5.5817 H         1 <0>         0.0901
     38 H19        -2.2801    0.0453    5.1737 H         1 <0>         0.1199
     39 H20        -3.9147   -1.7458    5.7966 H         1 <0>         0.1024
     40 H21        -4.1395   -1.1812    4.1221 H         1 <0>         0.0860
     41 H22        -2.6251   -3.6850    4.9961 H         1 <0>         0.0926
     42 H23        -4.2123   -3.6425    4.1899 H         1 <0>         0.1192
     43 H24        -1.8354   -4.4708    1.4446 H         1 <0>         0.0814
     44 H25        -1.7131   -5.0575    3.1206 H         1 <0>         0.0967
     45 H26        -4.2320   -5.1514    3.2043 H         1 <0>         0.0658
     46 H27        -4.2602   -4.7332    1.4744 H         1 <0>         0.0613
     47 H28        -4.2831   -7.0967    1.8191 H         1 <0>         0.4055
     48 H29         1.6401   -4.6722    2.0271 H         1 <0>         0.4311
     49 H30         2.1156   -6.2008    0.2597 H         1 <0>         0.1358
     50 H31         2.1233   -4.8211   -0.8649 H         1 <0>         0.1311
     51 H32         3.3659   -4.9422    0.4038 H         1 <0>         0.1332
     52 H33         0.4898   -4.5602    0.8527 H         1 <0>         0.4178
     53 H34        -0.7025   -2.8820    3.7495 H         1 <0>         0.4187
@<TRIPOS>BOND
     1    1    2 1
     2    1   24 1
     3    1   25 1
     4    1   26 1
     5    2    3 1
     6    2   10 1
     7    2    4 1
     8    4    5 1
     9    4   27 1
    10    4   28 1
    11    5    6 1
    12    5   29 1
    13    5   30 1
    14    6    7 1
    15    6    8 1
    16    6   22 1
    17    8    9 1
    18    8   10 1
    19    8   11 1
    20   10   31 1
    21   10   32 1
    22   11   12 1
    23   11   33 1
    24   11   34 1
    25   12   17 1
    26   12   13 1
    27   12   53 1
    28   13   14 1
    29   13   35 1
    30   13   36 1
    31   14   15 1
    32   14   37 1
    33   14   38 1
    34   15   16 1
    35   15   39 1
    36   15   40 1
    37   16   17 1
    38   16   41 1
    39   16   42 1
    40   17   18 1
    41   17   19 1
    42   19   20 1
    43   19   43 1
    44   19   44 1
    45   20   21 1
    46   20   45 1
    47   20   46 1
    48   21   47 1
    49   22   23 1
    50   22   48 1
    51   22   52 1
    52   23   49 1
    53   23   50 1
    54   23   51 1
@<TRIPOS>MOLECULE
ZINC62978623
   52    54     0     0     0
SMALL
USER_CHARGES

@<TRIPOS>ATOM
      1 C1          2.1147    1.6160   -1.2183 C.3       1 <0>        -0.1309
      2 C2          2.1855    0.0884   -1.2662 C.3       1 <0>        -0.1246
      3 C3          2.9303   -0.4266   -0.0330 C.3       1 <0>        -0.1458
      4 C4          2.1870    0.0101    1.2310 C.3       1 <0>         0.0778
      5 C5          2.1162    1.5377    1.2789 C.3       1 <0>        -0.1221
      6 C6          1.3714    2.0527    0.0457 C.3       1 <0>        -0.1287
      7 C7          0.7697   -0.5658    1.2138 C.3       1 <0>        -0.0043
      8 N1          0.0977   -0.2510    2.4816 N.4       1 <0>        -0.6331
      9 N2          2.9021   -0.4843    2.4151 N.3       1 <0>        -0.5254
     10 C8          4.2518    0.1123    2.5064 C.3       1 <0>         0.0404
     11 C9          5.1337   -0.9979    3.1303 C.3       1 <0>        -0.1453
     12 C10         4.5456   -2.2730    2.4706 C.3       1 <0>         0.0016
     13 H1          4.9710   -2.4248    1.4786 H         1 <0>         0.1477
     14 C11         3.0393   -1.9518    2.3750 C.3       1 <0>         0.0039
     15 N3          4.7766   -3.4502    3.3185 N.4       1 <0>        -0.3748
     16 C12         6.2203   -3.6525    3.4895 C.3       1 <0>        -0.0088
     17 C13         6.4657   -4.8284    4.4374 C.3       1 <0>        -0.1461
     18 C14         5.8380   -6.0936    3.8455 C.3       1 <0>        -0.1417
     19 C15         4.3465   -5.8458    3.6021 C.3       1 <0>        -0.1458
     20 C16         4.1796   -4.6322    2.6852 C.3       1 <0>        -0.0085
     21 H2          3.1245    2.0263   -1.2060 H         1 <0>         0.0726
     22 H3          1.5841    1.9829   -2.0969 H         1 <0>         0.0801
     23 H4          1.1758   -0.3219   -1.2785 H         1 <0>         0.0665
     24 H5          2.7151   -0.2227   -2.1667 H         1 <0>         0.0814
     25 H6          2.9808   -1.5149   -0.0671 H         1 <0>         0.0728
     26 H7          3.9401   -0.0162   -0.0207 H         1 <0>         0.0891
     27 H8          1.5866    1.8488    2.1794 H         1 <0>         0.0733
     28 H9          3.1259    1.9480    1.2912 H         1 <0>         0.0931
     29 H10         1.3209    3.1410    0.0798 H         1 <0>         0.0872
     30 H11         0.3616    1.6424    0.0334 H         1 <0>         0.0623
     31 H12         0.2097   -0.1282    0.3874 H         1 <0>         0.1512
     32 H13         0.8185   -1.6474    1.0872 H         1 <0>         0.1318
     33 H14         0.6615   -0.5790    3.2515 H         1 <0>         0.4366
     34 H15        -0.0269    0.7474    2.5574 H         1 <0>         0.4375
     35 H16         4.6183    0.3754    1.5142 H         1 <0>         0.0819
     36 H17         4.2354    0.9910    3.1512 H         1 <0>         0.1137
     37 H18         6.1805   -0.8645    2.8575 H         1 <0>         0.1125
     38 H19         5.0149   -1.0285    4.2134 H         1 <0>         0.1035
     39 H20         2.5110   -2.3968    3.2183 H         1 <0>         0.1012
     40 H21         2.6368   -2.3364    1.4379 H         1 <0>         0.0974
     41 H22         6.6740   -3.8657    2.5216 H         1 <0>         0.1303
     42 H23         6.6661   -2.7500    3.9078 H         1 <0>         0.1317
     43 H24         7.5382   -4.9781    4.5616 H         1 <0>         0.1168
     44 H25         6.0125   -4.6160    5.4057 H         1 <0>         0.0887
     45 H26         6.3261   -6.3353    2.9013 H         1 <0>         0.0838
     46 H27         5.9607   -6.9221    4.5431 H         1 <0>         0.0988
     47 H28         3.9042   -6.7227    3.1293 H         1 <0>         0.1152
     48 H29         3.8493   -5.6546    4.5531 H         1 <0>         0.0882
     49 H30         3.1189   -4.4530    2.5097 H         1 <0>         0.1238
     50 H31         4.6768   -4.8246    1.7345 H         1 <0>         0.1302
     51 H32        -0.8029   -0.7053    2.5068 H         1 <0>         0.4400
     52 H33         4.3505   -3.3022    4.2210 H         1 <0>         0.4214
@<TRIPOS>BOND
     1    1    6 1
     2    1    2 1
     3    1   21 1
     4    1   22 1
     5    2    3 1
     6    2   23 1
     7    2   24 1
     8    3    4 1
     9    3   25 1
    10    3   26 1
    11    4    5 1
    12    4    7 1
    13    4    9 1
    14    5    6 1
    15    5   27 1
    16    5   28 1
    17    6   29 1
    18    6   30 1
    19    7    8 1
    20    7   31 1
    21    7   32 1
    22    8   33 1
    23    8   34 1
    24    8   51 1
    25    9   14 1
    26    9   10 1
    27   10   11 1
    28   10   35 1
    29   10   36 1
    30   11   12 1
    31   11   37 1
    32   11   38 1
    33   12   13 1
    34   12   14 1
    35   12   15 1
    36   14   39 1
    37   14   40 1
    38   15   20 1
    39   15   16 1
    40   15   52 1
    41   16   17 1
    42   16   41 1
    43   16   42 1
    44   17   18 1
    45   17   43 1
    46   17   44 1
    47   18   19 1
    48   18   45 1
    49   18   46 1
    50   19   20 1
    51   19   47 1
    52   19   48 1
    53   20   49 1
    54   20   50 1
@<TRIPOS>MOLECULE
ZINC36862133
   53    54     0     0     0
SMALL
USER_CHARGES

@<TRIPOS>ATOM
      1 C1          0.5344    1.3041    0.7808 C.3       1 <0>        -0.1641
      2 C2          0.3432   -0.1929    0.5290 C.3       1 <0>        -0.1167
      3 C3          1.1240   -0.6035   -0.7211 C.3       1 <0>        -0.0567
      4 C4          0.6093    0.1862   -1.9262 C.3       1 <0>        -0.1544
      5 C5          2.6107   -0.3069   -0.5141 C.3       1 <0>        -0.1585
      6 C6          0.9329   -2.1005   -0.9730 C.3       1 <0>        -0.0789
      7 H1         -0.1262   -2.3118   -1.1204 H         1 <0>         0.0992
      8 C7          1.4476   -2.8903    0.2322 C.3       1 <0>        -0.1473
      9 C8          1.2564   -4.3872   -0.0197 C.3       1 <0>        -0.1427
     10 C9          2.0372   -4.7979   -1.2698 C.3       1 <0>         0.0241
     11 H2          1.9010   -5.8643   -1.4492 H         1 <0>         0.1597
     12 C10         1.5225   -4.0081   -2.4749 C.3       1 <0>         0.1081
     13 H3          0.4634   -4.2194   -2.6223 H         1 <0>         0.1687
     14 C11         1.7137   -2.5111   -2.2230 C.3       1 <0>        -0.1478
     15 N1          2.2702   -4.4013   -3.6718 N.pl3     1 <0>        -0.4307
     16 C12         3.5990   -4.1754   -3.9101 C.2       1 <0>        -0.0481
     17 C13         3.8722   -4.6985   -5.1206 C.2       1 <0>         0.0572
     18 N2          2.7410   -5.2292   -5.6082 N.pl3     1 <0>        -0.4715
     19 C14         1.7784   -5.0594   -4.7436 C.cat     1 <0>         0.3535
     20 C15         0.3532   -5.5184   -4.9145 C.3       1 <0>        -0.0494
     21 C16        -0.0470   -5.4021   -6.3867 C.3       1 <0>        -0.1689
     22 C17         0.2295   -6.9759   -4.4660 C.3       1 <0>        -0.1587
     23 N3          3.4646   -4.5131   -1.0711 N.4       1 <0>        -0.6477
     24 H4          1.5935    1.5154    0.9283 H         1 <0>         0.0591
     25 H5          0.1677    1.8667   -0.0777 H         1 <0>         0.0612
     26 H6         -0.0219    1.5966    1.6714 H         1 <0>         0.0623
     27 H7          0.7099   -0.7555    1.3875 H         1 <0>         0.0664
     28 H8         -0.7159   -0.4042    0.3815 H         1 <0>         0.0683
     29 H9          0.7455    1.2527   -1.7468 H         1 <0>         0.0730
     30 H10         1.1656   -0.1063   -2.8168 H         1 <0>         0.0511
     31 H11        -0.4498   -0.0251   -2.0736 H         1 <0>         0.0623
     32 H12         2.9773   -0.8696    0.3444 H         1 <0>         0.0586
     33 H13         3.1669   -0.5995   -1.4047 H         1 <0>         0.0489
     34 H14         2.7468    0.7595   -0.3347 H         1 <0>         0.0762
     35 H15         2.5067   -2.6790    0.3796 H         1 <0>         0.0694
     36 H16         0.8913   -2.5977    1.1227 H         1 <0>         0.1143
     37 H17         1.6231   -4.9499    0.8388 H         1 <0>         0.1140
     38 H18         0.1973   -4.5985   -0.1671 H         1 <0>         0.1258
     39 H19         1.3470   -1.9485   -3.0816 H         1 <0>         0.1162
     40 H20         2.7728   -2.2998   -2.0756 H         1 <0>         0.0794
     41 H21         4.2946   -3.6739   -3.2536 H         1 <0>         0.2177
     42 H22         4.8336   -4.6918   -5.6126 H         1 <0>         0.2355
     43 H23        -0.3044   -4.8948   -4.3089 H         1 <0>         0.1275
     44 H24        -1.0778   -5.7340   -6.5103 H         1 <0>         0.1061
     45 H25         0.0411   -4.3637   -6.7062 H         1 <0>         0.0774
     46 H26         0.6106   -6.0256   -6.9923 H         1 <0>         0.0705
     47 H27         0.5146   -7.0588   -3.4172 H         1 <0>         0.0655
     48 H28        -0.8013   -7.3079   -4.5896 H         1 <0>         0.1040
     49 H29         0.8872   -7.5995   -5.0717 H         1 <0>         0.0751
     50 H30         3.7752   -4.9361   -0.2093 H         1 <0>         0.4521
     51 H31         3.9937   -4.8926   -1.8418 H         1 <0>         0.4279
     52 H32         3.6053   -3.5150   -1.0256 H         1 <0>         0.4344
     53 H33         2.6532   -5.6727   -6.4664 H         1 <0>         0.4715
@<TRIPOS>BOND
     1    1    2 1
     2    1   24 1
     3    1   25 1
     4    1   26 1
     5    2    3 1
     6    2   27 1
     7    2   28 1
     8    3    4 1
     9    3    5 1
    10    3    6 1
    11    4   29 1
    12    4   30 1
    13    4   31 1
    14    5   32 1
    15    5   33 1
    16    5   34 1
    17    6    7 1
    18    6   14 1
    19    6    8 1
    20    8    9 1
    21    8   35 1
    22    8   36 1
    23    9   10 1
    24    9   37 1
    25    9   38 1
    26   10   11 1
    27   10   12 1
    28   10   23 1
    29   12   13 1
    30   12   14 1
    31   12   15 1
    32   14   39 1
    33   14   40 1
    34   15   19 1
    35   15   16 1
    36   16   17 2
    37   16   41 1
    38   17   18 1
    39   17   42 1
    40   18   19 2
    41   18   53 1
    42   19   20 1
    43   20   21 1
    44   20   22 1
    45   20   43 1
    46   21   44 1
    47   21   45 1
    48   21   46 1
    49   22   47 1
    50   22   48 1
    51   22   49 1
    52   23   50 1
    53   23   51 1
    54   23   52 1
@<TRIPOS>MOLECULE
ZINC42034390
   45    46     0     0     0
SMALL
USER_CHARGES

@<TRIPOS>ATOM
      1 C1          0.8718   -0.6596   -1.2737 C.3       1 <0>        -0.1744
      2 C2          0.1822   -0.1471   -0.0078 C.3       1 <0>        -0.1205
      3 C3          0.2949    1.3776    0.0527 C.3       1 <0>        -0.1538
      4 C4         -1.2940   -0.5487   -0.0331 C.3       1 <0>        -0.0100
      5 N1         -1.4037   -2.0132    0.0030 N.4       1 <0>        -0.2998
      6 C5         -0.9099   -2.5095    1.2945 C.3       1 <0>        -0.0176
      7 C6         -0.8787   -4.0391    1.2748 C.3       1 <0>        -0.1158
      8 C7          0.1435   -4.5150    0.2406 C.3       1 <0>        -0.1682
      9 C8         -0.4841   -4.5589    2.6586 C.3       1 <0>        -0.1530
     10 C9         -2.7419   -2.3843   -0.1580 C.2       1 <0>         0.1575
     11 C10        -3.2304   -3.1543   -1.1443 C.2       1 <0>        -0.0727
     12 N2         -4.6018   -3.2835   -0.9412 N.pl3     1 <0>        -0.3896
     13 C11        -5.6764   -3.9035   -1.5407 C.2       1 <0>        -0.0302
     14 C12        -6.9011   -3.7921   -1.0287 C.2       1 <0>        -0.1083
     15 S1         -6.6113   -2.7591    0.3992 S.3       1 <0>         0.2711
     16 C13        -4.8574   -2.5581    0.1924 C.2       1 <0>         0.2164
     17 N3         -3.7556   -2.0366    0.6496 N.2       1 <0>        -0.4065
     18 C14        -2.4369   -3.7676   -2.2691 C.3       1 <0>         0.0616
     19 N4         -2.4004   -2.8383   -3.4061 N.4       1 <0>        -0.6404
     20 H1          1.9235   -0.3735   -1.2558 H         1 <0>         0.0973
     21 H2          0.7915   -1.7458   -1.3168 H         1 <0>         0.0423
     22 H3          0.3919   -0.2247   -2.1504 H         1 <0>         0.0722
     23 H4          0.6621   -0.5820    0.8689 H         1 <0>         0.1028
     24 H5          1.3422    1.6605    0.1589 H         1 <0>         0.0857
     25 H6         -0.1066    1.8083   -0.8646 H         1 <0>         0.0695
     26 H7         -0.2705    1.7501    0.9069 H         1 <0>         0.0738
     27 H8         -1.8007   -0.1249    0.8340 H         1 <0>         0.1495
     28 H9         -1.7575   -0.1720   -0.9448 H         1 <0>         0.1289
     29 H10         0.0959   -2.1278    1.4699 H         1 <0>         0.1494
     30 H11        -1.5716   -2.1698    2.0913 H         1 <0>         0.1478
     31 H12        -1.8658   -4.4192    1.0117 H         1 <0>         0.0869
     32 H13         0.1657   -5.6047    0.2266 H         1 <0>         0.0932
     33 H14        -0.1377   -4.1447   -0.7452 H         1 <0>         0.0284
     34 H15         1.1305   -4.1348    0.5037 H         1 <0>         0.0854
     35 H16        -1.2123   -4.2198    3.3954 H         1 <0>         0.0720
     36 H17        -0.4619   -5.6486    2.6446 H         1 <0>         0.0821
     37 H18         0.5030   -4.1788    2.9217 H         1 <0>         0.0746
     38 H19        -5.5239   -4.4867   -2.4369 H         1 <0>         0.1959
     39 H20        -7.8284   -4.2163   -1.3846 H         1 <0>         0.2433
     40 H21        -1.4203   -3.9670   -1.9300 H         1 <0>         0.1555
     41 H22        -2.9065   -4.7015   -2.5780 H         1 <0>         0.1714
     42 H23        -1.9656   -1.9738   -3.1201 H         1 <0>         0.4311
     43 H24        -1.8690   -3.2489   -4.1592 H         1 <0>         0.4554
     44 H25        -0.8524   -2.4102   -0.7429 H         1 <0>         0.4150
     45 H26        -3.3414   -2.6537   -3.7200 H         1 <0>         0.4450
@<TRIPOS>BOND
     1    1    2 1
     2    1   20 1
     3    1   21 1
     4    1   22 1
     5    2    3 1
     6    2    4 1
     7    2   23 1
     8    3   24 1
     9    3   25 1
    10    3   26 1
    11    4    5 1
    12    4   27 1
    13    4   28 1
    14    5    6 1
    15    5   10 1
    16    5   44 1
    17    6    7 1
    18    6   29 1
    19    6   30 1
    20    7    8 1
    21    7    9 1
    22    7   31 1
    23    8   32 1
    24    8   33 1
    25    8   34 1
    26    9   35 1
    27    9   36 1
    28    9   37 1
    29   10   17 1
    30   10   11 2
    31   11   12 1
    32   11   18 1
    33   12   16 1
    34   12   13 1
    35   13   14 2
    36   13   38 1
    37   14   15 1
    38   14   39 1
    39   15   16 1
    40   16   17 2
    41   18   19 1
    42   18   40 1
    43   18   41 1
    44   19   42 1
    45   19   43 1
    46   19   45 1
@<TRIPOS>MOLECULE
ZINC45067257
   50    52     0     0     0
SMALL
USER_CHARGES

@<TRIPOS>ATOM
      1 C1         -0.0189    0.6520   -1.8083 C.3       1 <0>        -0.1918
      2 C2         -0.0564   -0.5402   -0.8502 C.3       1 <0>        -0.1728
      3 C3         -1.4200   -0.5959   -0.1585 C.3       1 <0>         0.0126
      4 H1         -1.3717   -0.0510    0.7843 H         1 <0>         0.1625
      5 C4         -1.7945   -2.0542    0.1138 C.3       1 <0>         0.0951
      6 H2         -1.4595   -2.6764   -0.7160 H         1 <0>         0.1943
      7 C5         -3.2902   -2.1703    0.2569 C.2       1 <0>        -0.1558
      8 C6         -4.1362   -2.6365   -0.6793 C.2       1 <0>        -0.1129
      9 C7         -5.4359   -2.5689   -0.1270 C.2       1 <0>        -0.2167
     10 C8         -5.3065   -2.0656    1.1137 C.2       1 <0>         0.0292
     11 O1         -4.0040   -1.8315    1.3429 O.3       1 <0>        -0.1775
     12 N1         -1.1477   -2.5024    1.3542 N.4       1 <0>        -0.3809
     13 C9          0.2232   -1.9537    1.4268 C.3       1 <0>        -0.0588
     14 C10         1.0627   -3.0729    2.0918 C.3       1 <0>        -0.1402
     15 C11         0.4278   -4.3480    1.4771 C.3       1 <0>        -0.1368
     16 C12        -1.0654   -3.9745    1.3670 C.3       1 <0>         0.0310
     17 H3         -1.6105   -4.3689    2.2246 H         1 <0>         0.1455
     18 C13        -1.6492   -4.5397    0.0706 C.3       1 <0>        -0.1150
     19 C14        -3.0173   -3.8891   -0.2206 C.3       1 <0>        -0.2136
     20 C15        -3.8651   -5.0390   -0.8189 C.3       1 <0>        -0.1135
     21 C16        -3.4177   -6.2640    0.0167 C.3       1 <0>        -0.1287
     22 C17        -1.9038   -6.0497    0.2215 C.3       1 <0>        -0.1166
     23 N2         -2.4347    0.0163   -1.0265 N.4       1 <0>        -0.6274
     24 H4          0.9526    0.6917   -2.3011 H         1 <0>         0.1070
     25 H5         -0.8023    0.5406   -2.5579 H         1 <0>         0.0641
     26 H6         -0.1802    1.5733   -1.2484 H         1 <0>         0.0823
     27 H7          0.1049   -1.4615   -1.4101 H         1 <0>         0.1093
     28 H8          0.7270   -0.4288   -0.1006 H         1 <0>         0.1318
     29 H9         -3.8731   -2.9932   -1.6641 H         1 <0>         0.1672
     30 H10        -6.3562   -2.8644   -0.6089 H         1 <0>         0.1740
     31 H11        -6.1127   -1.8843    1.8091 H         1 <0>         0.2272
     32 H12         0.6000   -1.7402    0.4266 H         1 <0>         0.1573
     33 H13         0.2393   -1.0524    2.0396 H         1 <0>         0.1427
     34 H14         2.1139   -2.9885    1.8165 H         1 <0>         0.1260
     35 H15         0.9421   -3.0601    3.1751 H         1 <0>         0.1048
     36 H16         0.8479   -4.5511    0.4920 H         1 <0>         0.1048
     37 H17         0.5633   -5.2035    2.1388 H         1 <0>         0.1213
     38 H18        -0.9644   -4.3574   -0.7575 H         1 <0>         0.0987
     39 H19        -3.4689   -3.5217    0.7009 H         1 <0>         0.0951
     40 H20        -2.9088   -3.0796   -0.9425 H         1 <0>         0.1189
     41 H21        -4.9291   -4.8460   -0.6822 H         1 <0>         0.0853
     42 H22        -3.6301   -5.1840   -1.8733 H         1 <0>         0.0853
     43 H23        -3.9340   -6.2802    0.9766 H         1 <0>         0.0723
     44 H24        -3.6014   -7.1878   -0.5320 H         1 <0>         0.0843
     45 H25        -1.3432   -6.6002   -0.5340 H         1 <0>         0.0866
     46 H26        -1.6114   -6.3799    1.2183 H         1 <0>         0.0777
     47 H27        -3.3340   -0.0204   -0.5703 H         1 <0>         0.4402
     48 H28        -2.1878    0.9780   -1.2061 H         1 <0>         0.4517
     49 H29        -1.6809   -2.1852    2.1500 H         1 <0>         0.4333
     50 H30        -2.4795   -0.4881   -1.8992 H         1 <0>         0.4399
@<TRIPOS>BOND
     1    1    2 1
     2    1   24 1
     3    1   25 1
     4    1   26 1
     5    2    3 1
     6    2   27 1
     7    2   28 1
     8    3    4 1
     9    3    5 1
    10    3   23 1
    11    5    6 1
    12    5    7 1
    13    5   12 1
    14    7   11 1
    15    7    8 2
    16    8    9 1
    17    8   29 1
    18    9   10 2
    19    9   30 1
    20   10   11 1
    21   10   31 1
    22   12   16 1
    23   12   13 1
    24   12   49 1
    25   13   14 1
    26   13   32 1
    27   13   33 1
    28   14   15 1
    29   14   34 1
    30   14   35 1
    31   15   16 1
    32   15   36 1
    33   15   37 1
    34   16   17 1
    35   16   18 1
    36   18   22 1
    37   18   19 1
    38   18   38 1
    39   19   20 1
    40   19   39 1
    41   19   40 1
    42   20   21 1
    43   20   41 1
    44   20   42 1
    45   21   22 1
    46   21   43 1
    47   21   44 1
    48   22   45 1
    49   22   46 1
    50   23   47 1
    51   23   48 1
    52   23   50 1
@<TRIPOS>MOLECULE
ZINC53875416
   56    57     0     0     0
SMALL
USER_CHARGES

@<TRIPOS>ATOM
      1 C1          1.0357    1.3101   -0.9677 C.3       1 <0>        -0.0570
      2 N1          0.7578   -0.1111   -0.7212 N.4       1 <0>        -0.5197
      3 C2          1.5139   -0.9309   -1.6773 C.3       1 <0>         0.0381
      4 H1          1.2734   -0.6041   -2.6890 H         1 <0>         0.1535
      5 C3          3.0203   -0.7220   -1.4309 C.3       1 <0>        -0.1390
      6 C4          3.8881   -1.8269   -2.0632 C.3       1 <0>        -0.1207
      7 C5          3.4168   -2.2126   -3.4391 C.3       1 <0>        -0.1291
      8 C6          2.4722   -3.4253   -3.3114 C.3       1 <0>        -0.1374
      9 C7          1.1274   -3.0410   -2.9085 C.3       1 <0>        -0.1106
     10 C8          1.1007   -2.3691   -1.5190 C.3       1 <0>        -0.1429
     11 H2          1.7952   -2.8783   -0.8508 H         1 <0>         0.1302
     12 C9         -0.3153   -2.4366   -0.9434 C.3       1 <0>        -0.0451
     13 N2         -0.6699   -3.8373   -0.6784 N.4       1 <0>        -0.3741
     14 C10         0.2035   -4.3728    0.3744 C.3       1 <0>        -0.0196
     15 C11        -0.0669   -5.8685    0.5496 C.3       1 <0>         0.0453
     16 O1          0.2627   -6.5568   -0.6586 O.3       1 <0>        -0.5819
     17 C12        -2.0696   -3.9134   -0.2391 C.3       1 <0>         0.0128
     18 C13        -2.9874   -3.4736   -1.3816 C.3       1 <0>        -0.1373
     19 C14        -4.4452   -3.5529   -0.9240 C.3       1 <0>        -0.1210
     20 C15        -4.6526   -2.6319    0.2800 C.3       1 <0>        -0.1311
     21 C16        -3.7349   -3.0717    1.4225 C.3       1 <0>        -0.1212
     22 C17        -2.2770   -2.9924    0.9650 C.3       1 <0>        -0.1378
     23 H3          2.1021    1.4986   -0.8441 H         1 <0>         0.1328
     24 H4          0.7365    1.5680   -1.9837 H         1 <0>         0.1310
     25 H5          0.4746    1.9184   -0.2583 H         1 <0>         0.1347
     26 H6          1.0347   -0.3498    0.2192 H         1 <0>         0.4282
     27 H7          3.3151    0.2398   -1.8507 H         1 <0>         0.1010
     28 H8          3.2017   -0.7044   -0.3563 H         1 <0>         0.0886
     29 H9          4.9169   -1.4730   -2.1291 H         1 <0>         0.0907
     30 H10         3.8606   -2.7075   -1.4213 H         1 <0>         0.0729
     31 H11         2.8812   -1.3773   -3.8903 H         1 <0>         0.0697
     32 H12         4.2733   -2.4793   -4.0582 H         1 <0>         0.0870
     33 H13         2.4204   -3.9352   -4.2733 H         1 <0>         0.0875
     34 H14         2.8795   -4.1134   -2.5706 H         1 <0>         0.0743
     35 H15         0.7231   -2.3469   -3.6453 H         1 <0>         0.0903
     36 H16         0.4988   -3.9311   -2.8826 H         1 <0>         0.0728
     37 H17        -0.3570   -1.8691   -0.0137 H         1 <0>         0.1222
     38 H18        -1.0193   -2.0128   -1.6596 H         1 <0>         0.1491
     39 H19         1.2458   -4.2225    0.0931 H         1 <0>         0.1394
     40 H20         0.0019   -3.8549    1.3121 H         1 <0>         0.1457
     41 H21         0.5433   -6.2549    1.3659 H         1 <0>         0.1012
     42 H22        -1.1211   -6.0226    0.7796 H         1 <0>         0.0749
     43 H23         0.1158   -7.5118   -0.6197 H         1 <0>         0.4166
     44 H24        -2.3067   -4.9392    0.0430 H         1 <0>         0.1486
     45 H25        -2.7503   -2.4478   -1.6637 H         1 <0>         0.0802
     46 H26        -2.8396   -4.1297   -2.2394 H         1 <0>         0.0914
     47 H27        -5.0990   -3.2396   -1.7380 H         1 <0>         0.0903
     48 H28        -4.6822   -4.5787   -0.6419 H         1 <0>         0.0795
     49 H29        -4.4156   -1.6061   -0.0021 H         1 <0>         0.0676
     50 H30        -5.6912   -2.6884    0.6060 H         1 <0>         0.0858
     51 H31        -3.8826   -2.4156    2.2803 H         1 <0>         0.0890
     52 H32        -3.9719   -4.0975    1.7046 H         1 <0>         0.0800
     53 H33        -1.6232   -3.3057    1.7789 H         1 <0>         0.0886
     54 H34        -2.0400   -1.9666    0.6829 H         1 <0>         0.0761
     55 H35        -0.2294   -0.2856   -0.8356 H         1 <0>         0.4217
     56 H36        -0.5520   -4.3793   -1.5212 H         1 <0>         0.4360
@<TRIPOS>BOND
     1    1    2 1
     2    1   23 1
     3    1   24 1
     4    1   25 1
     5    2    3 1
     6    2   26 1
     7    2   55 1
     8    3    4 1
     9    3   10 1
    10    3    5 1
    11    5    6 1
    12    5   27 1
    13    5   28 1
    14    6    7 1
    15    6   29 1
    16    6   30 1
    17    7    8 1
    18    7   31 1
    19    7   32 1
    20    8    9 1
    21    8   33 1
    22    8   34 1
    23    9   10 1
    24    9   35 1
    25    9   36 1
    26   10   11 1
    27   10   12 1
    28   12   13 1
    29   12   37 1
    30   12   38 1
    31   13   14 1
    32   13   17 1
    33   13   56 1
    34   14   15 1
    35   14   39 1
    36   14   40 1
    37   15   16 1
    38   15   41 1
    39   15   42 1
    40   16   43 1
    41   17   22 1
    42   17   18 1
    43   17   44 1
    44   18   19 1
    45   18   45 1
    46   18   46 1
    47   19   20 1
    48   19   47 1
    49   19   48 1
    50   20   21 1
    51   20   49 1
    52   20   50 1
    53   21   22 1
    54   21   51 1
    55   21   52 1
    56   22   53 1
    57   22   54 1
@<TRIPOS>MOLECULE
ZINC62744731
   49    49     0     0     0
SMALL
USER_CHARGES

@<TRIPOS>ATOM
      1 C1          0.3663    0.8521   -1.0487 C.3       1 <0>        -0.1814
      2 C2          0.3800   -0.6663   -0.8610 C.3       1 <0>         0.0951
      3 H1          1.0500   -1.1169   -1.5932 H         1 <0>         0.1528
      4 C3         -1.0126   -1.2089   -1.0537 C.ar      1 <0>        -0.1956
      5 C4         -1.8344   -1.4068    0.0394 C.ar      1 <0>        -0.0852
      6 C5         -3.1121   -1.9039   -0.1355 C.ar      1 <0>        -0.1453
      7 C6         -3.5719   -2.2053   -1.4069 C.ar      1 <0>         0.1597
      8 C7         -2.7522   -2.0084   -2.5038 C.ar      1 <0>        -0.1683
      9 C8         -1.4718   -1.5042   -2.3290 C.ar      1 <0>         0.1791
     10 O1         -0.6662   -1.3050   -3.4052 O.3       1 <0>        -0.4860
     11 F1         -4.8209   -2.6919   -1.5757 F         1 <0>        -0.1118
     12 N1          0.8478   -0.9880    0.4939 N.4       1 <0>        -0.5048
     13 C9          2.2469   -0.5655    0.6421 C.3       1 <0>        -0.0400
     14 C10         2.7340   -0.9005    2.0532 C.3       1 <0>        -0.0483
     15 N2          4.1702   -0.6096    2.1574 N.4       1 <0>        -0.3773
     16 C11         4.3885    0.8361    2.0158 C.3       1 <0>         0.0170
     17 C12         4.1844    1.5178    3.3702 C.3       1 <0>        -0.1918
     18 C13         5.8156    1.0909    1.5265 C.3       1 <0>        -0.2099
     19 C14         4.6660   -1.0538    3.4669 C.3       1 <0>         0.0149
     20 C15         4.3094   -2.5271    3.6744 C.3       1 <0>        -0.1884
     21 C16         6.1856   -0.8843    3.5211 C.3       1 <0>        -0.1928
     22 H2          1.3736    1.2445   -0.9094 H         1 <0>         0.0807
     23 H3          0.0193    1.0908   -2.0540 H         1 <0>         0.1211
     24 H4         -0.3037    1.3027   -0.3165 H         1 <0>         0.0878
     25 H5         -1.4777   -1.1732    1.0317 H         1 <0>         0.1291
     26 H6         -3.7527   -2.0579    0.7203 H         1 <0>         0.1560
     27 H7         -3.1101   -2.2433   -3.4953 H         1 <0>         0.1617
     28 H8         -0.1235   -2.0709   -3.6374 H         1 <0>         0.4061
     29 H9          0.2768   -0.5041    1.1706 H         1 <0>         0.4336
     30 H10         2.8637   -1.0882   -0.0889 H         1 <0>         0.1560
     31 H11         2.3211    0.5095    0.4778 H         1 <0>         0.1570
     32 H12         2.1877   -0.2979    2.7789 H         1 <0>         0.1542
     33 H13         2.5618   -1.9576    2.2556 H         1 <0>         0.1569
     34 H14         3.6792    1.2417    1.2943 H         1 <0>         0.1322
     35 H15         4.9667    1.1990    4.0590 H         1 <0>         0.0947
     36 H16         4.2308    2.5994    3.2433 H         1 <0>         0.1123
     37 H17         3.2103    1.2407    3.7733 H         1 <0>         0.0782
     38 H18         5.9325    0.6870    0.5209 H         1 <0>         0.0840
     39 H19         6.0087    2.1635    1.5119 H         1 <0>         0.1130
     40 H20         6.5224    0.6036    2.1982 H         1 <0>         0.1051
     41 H21         4.2053   -0.4544    4.2522 H         1 <0>         0.1506
     42 H22         3.2268   -2.6479    3.6357 H         1 <0>         0.0776
     43 H23         4.7701   -3.1265    2.8891 H         1 <0>         0.0850
     44 H24         4.6774   -2.8567    4.6460 H         1 <0>         0.1157
     45 H25         6.4288    0.1679    3.6693 H         1 <0>         0.0972
     46 H26         6.5873   -1.4700    4.3481 H         1 <0>         0.1126
     47 H27         6.6234   -1.2300    2.5847 H         1 <0>         0.0860
     48 H28         0.7791   -1.9831    0.6460 H         1 <0>         0.4375
     49 H29         4.6661   -1.0979    1.4268 H         1 <0>         0.4265
@<TRIPOS>BOND
     1    1    2 1
     2    1   22 1
     3    1   23 1
     4    1   24 1
     5    2    3 1
     6    2    4 1
     7    2   12 1
     8    4    9 ar
     9    4    5 ar
    10    5    6 ar
    11    5   25 1
    12    6    7 ar
    13    6   26 1
    14    7    8 ar
    15    7   11 1
    16    8    9 ar
    17    8   27 1
    18    9   10 1
    19   10   28 1
    20   12   13 1
    21   12   29 1
    22   12   48 1
    23   13   14 1
    24   13   30 1
    25   13   31 1
    26   14   15 1
    27   14   32 1
    28   14   33 1
    29   15   16 1
    30   15   19 1
    31   15   49 1
    32   16   17 1
    33   16   18 1
    34   16   34 1
    35   17   35 1
    36   17   36 1
    37   17   37 1
    38   18   38 1
    39   18   39 1
    40   18   40 1
    41   19   20 1
    42   19   21 1
    43   19   41 1
    44   20   42 1
    45   20   43 1
    46   20   44 1
    47   21   45 1
    48   21   46 1
    49   21   47 1
@<TRIPOS>MOLECULE
ZINC37157840
   57    58     0     0     0
SMALL
USER_CHARGES

@<TRIPOS>ATOM
      1 C1         -1.9291    1.7848   -1.7709 C.3       1 <0>        -0.1613
      2 C2         -1.4698    0.3567   -1.4702 C.3       1 <0>        -0.1255
      3 C3         -2.6584   -0.4667   -0.9702 C.3       1 <0>        -0.1199
      4 C4         -2.1991   -1.8948   -0.6696 C.3       1 <0>        -0.1063
      5 H1         -1.7197   -2.3159   -1.5533 H         1 <0>         0.0712
      6 C5         -1.2026   -1.8763    0.4913 C.3       1 <0>        -0.1274
      7 C6         -0.7433   -3.3045    0.7919 C.3       1 <0>        -0.1437
      8 C7         -1.9534   -4.1600    1.1722 C.3       1 <0>        -0.1380
      9 H2         -2.4328   -3.7389    2.0559 H         1 <0>         0.1466
     10 C8         -2.9499   -4.1785    0.0113 C.3       1 <0>         0.0411
     11 H3         -3.8120   -4.7880    0.2822 H         1 <0>         0.1530
     12 C9         -3.4092   -2.7504   -0.2893 C.3       1 <0>        -0.1470
     13 N1         -2.3038   -4.7460   -1.1796 N.4       1 <0>        -0.3897
     14 C10        -2.9662   -4.2341   -2.3865 C.3       1 <0>        -0.0172
     15 C11        -2.2815   -4.8103   -3.6278 C.3       1 <0>         0.0242
     16 N2         -2.3595   -6.2775   -3.5902 N.3       1 <0>        -0.5362
     17 C12        -1.7221   -6.8031   -2.3747 C.3       1 <0>         0.0200
     18 C13        -2.4114   -6.2105   -1.1437 C.3       1 <0>        -0.0233
     19 C14        -1.7618   -6.8675   -4.7954 C.3       1 <0>         0.0516
     20 C15        -2.0794   -8.3634   -4.8422 C.3       1 <0>        -0.1205
     21 C16        -1.4568   -8.9780   -6.0975 C.3       1 <0>        -0.1594
     22 C17        -1.4941   -5.5881    1.4728 C.3       1 <0>        -0.0327
     23 N3         -0.6861   -5.5946    2.6997 N.4       1 <0>        -0.6359
     24 H4         -1.0823    2.3714   -2.1271 H         1 <0>         0.0621
     25 H5         -2.7043    1.7635   -2.5369 H         1 <0>         0.0584
     26 H6         -2.3280    2.2369   -0.8628 H         1 <0>         0.0584
     27 H7         -1.0709   -0.0954   -2.3783 H         1 <0>         0.0612
     28 H8         -0.6947    0.3780   -0.7042 H         1 <0>         0.0641
     29 H9         -3.0573   -0.0146   -0.0622 H         1 <0>         0.0761
     30 H10        -3.4336   -0.4881   -1.7362 H         1 <0>         0.0743
     31 H11        -0.3405   -1.2668    0.2204 H         1 <0>         0.0960
     32 H12        -1.6820   -1.4552    1.3750 H         1 <0>         0.0882
     33 H13        -0.2639   -3.7256   -0.0918 H         1 <0>         0.0710
     34 H14        -0.0334   -3.2913    1.6189 H         1 <0>         0.0921
     35 H15        -3.8886   -2.3293    0.5944 H         1 <0>         0.1195
     36 H16        -4.1191   -2.7636   -1.1163 H         1 <0>         0.1065
     37 H17        -4.0149   -4.5313   -2.3791 H         1 <0>         0.1453
     38 H18        -2.8970   -3.1464   -2.4053 H         1 <0>         0.1493
     39 H19        -2.7823   -4.4423   -4.5233 H         1 <0>         0.1303
     40 H20        -1.2361   -4.5019   -3.6426 H         1 <0>         0.0602
     41 H21        -1.8148   -7.8890   -2.3559 H         1 <0>         0.1301
     42 H22        -0.6675   -6.5276   -2.3689 H         1 <0>         0.0586
     43 H23        -1.9309   -6.5881   -0.2412 H         1 <0>         0.1281
     44 H24        -3.4629   -6.4976   -1.1427 H         1 <0>         0.1487
     45 H25        -2.1724   -6.3810   -5.6802 H         1 <0>         0.0936
     46 H26        -0.6812   -6.7261   -4.7716 H         1 <0>         0.0484
     47 H27        -1.6687   -8.8499   -3.9575 H         1 <0>         0.0592
     48 H28        -3.1599   -8.5049   -4.8661 H         1 <0>         0.0769
     49 H29        -1.6831  -10.0437   -6.1308 H         1 <0>         0.0666
     50 H30        -1.8675   -8.4915   -6.9822 H         1 <0>         0.0620
     51 H31        -0.3763   -8.8366   -6.0736 H         1 <0>         0.0561
     52 H32        -2.3652   -6.2291    1.6081 H         1 <0>         0.1533
     53 H33        -0.8951   -5.9598    0.6414 H         1 <0>         0.1350
     54 H34        -0.3832   -6.5364    2.8980 H         1 <0>         0.4495
     55 H35         0.1203   -5.0012    2.5744 H         1 <0>         0.4388
     56 H36        -1.2405   -5.2505    3.4693 H         1 <0>         0.4446
     57 H37        -1.3304   -4.4808   -1.1926 H         1 <0>         0.4135
@<TRIPOS>BOND
     1    1    2 1
     2    1   24 1
     3    1   25 1
     4    1   26 1
     5    2    3 1
     6    2   27 1
     7    2   28 1
     8    3    4 1
     9    3   29 1
    10    3   30 1
    11    4    5 1
    12    4   12 1
    13    4    6 1
    14    6    7 1
    15    6   31 1
    16    6   32 1
    17    7    8 1
    18    7   33 1
    19    7   34 1
    20    8    9 1
    21    8   10 1
    22    8   22 1
    23   10   11 1
    24   10   12 1
    25   10   13 1
    26   12   35 1
    27   12   36 1
    28   13   18 1
    29   13   14 1
    30   13   57 1
    31   14   15 1
    32   14   37 1
    33   14   38 1
    34   15   16 1
    35   15   39 1
    36   15   40 1
    37   16   17 1
    38   16   19 1
    39   17   18 1
    40   17   41 1
    41   17   42 1
    42   18   43 1
    43   18   44 1
    44   19   20 1
    45   19   45 1
    46   19   46 1
    47   20   21 1
    48   20   47 1
    49   20   48 1
    50   21   49 1
    51   21   50 1
    52   21   51 1
    53   22   23 1
    54   22   52 1
    55   22   53 1
    56   23   54 1
    57   23   55 1
    58   23   56 1
@<TRIPOS>MOLECULE
ZINC48821605
   53    54     0     0     0
SMALL
USER_CHARGES

@<TRIPOS>ATOM
      1 C1          0.1743    1.3136   -0.0510 C.3       1 <0>        -0.1590
      2 C2          0.0691   -0.2124   -0.0159 C.3       1 <0>        -0.0841
      3 C3         -1.3828   -0.6155    0.0050 C.cat     1 <0>         0.3146
      4 N1         -2.1475   -0.7591   -1.0427 N.pl3     1 <0>        -0.4707
      5 C4         -3.3757   -1.1252   -0.6471 C.2       1 <0>         0.0159
      6 C5         -3.3720   -1.2117    0.6968 C.2       1 <0>        -0.0024
      7 N2         -2.1066   -0.8937    1.1106 N.pl3     1 <0>        -0.4088
      8 C6         -1.6277   -0.8588    2.4947 C.3       1 <0>         0.1391
      9 H1         -0.5769   -0.5692    2.5084 H         1 <0>         0.1370
     10 C7         -1.7828   -2.2451    3.1232 C.3       1 <0>        -0.1386
     11 C8         -3.2577   -2.6516    3.1039 C.3       1 <0>        -0.0972
     12 H2         -3.6141   -2.6776    2.0742 H         1 <0>         0.0807
     13 C9         -4.0773   -1.6353    3.9017 C.3       1 <0>        -0.1320
     14 C10        -3.9221   -0.2490    3.2732 C.3       1 <0>        -0.1554
     15 C11        -2.4472    0.1575    3.2924 C.3       1 <0>        -0.1295
     16 H3         -2.0909    0.1835    4.3222 H         1 <0>         0.1379
     17 C12        -2.2921    1.5438    2.6640 C.3       1 <0>        -0.0161
     18 N3         -2.9804    2.5389    3.4970 N.4       1 <0>        -0.6358
     19 C13        -3.4129   -4.0379    3.7324 C.3       1 <0>        -0.0552
     20 C14        -2.5933   -5.0542    2.9347 C.3       1 <0>        -0.1521
     21 C15        -2.9127   -4.0014    5.1779 C.3       1 <0>        -0.1546
     22 C16        -4.8878   -4.4444    3.7132 C.3       1 <0>        -0.1149
     23 C17        -5.0429   -5.8307    4.3417 C.3       1 <0>        -0.1639
     24 H4          1.2244    1.6051   -0.0661 H         1 <0>         0.1009
     25 H5         -0.3206    1.6914   -0.9456 H         1 <0>         0.0738
     26 H6         -0.3061    1.7313    0.8338 H         1 <0>         0.0551
     27 H7          0.5495   -0.6301   -0.9007 H         1 <0>         0.1303
     28 H8          0.5640   -0.5903    0.8787 H         1 <0>         0.1210
     29 H9         -4.2197   -1.3169   -1.2931 H         1 <0>         0.2281
     30 H10        -4.2060   -1.4838    1.3266 H         1 <0>         0.2378
     31 H11        -1.1990   -2.9691    2.5548 H         1 <0>         0.0970
     32 H12        -1.4265   -2.2191    4.1530 H         1 <0>         0.1157
     33 H13        -5.1280   -1.9249    3.8880 H         1 <0>         0.0934
     34 H14        -3.7210   -1.6094    4.9315 H         1 <0>         0.0883
     35 H15        -4.2785   -0.2750    2.2434 H         1 <0>         0.0871
     36 H16        -4.5060    0.4750    3.8416 H         1 <0>         0.0816
     37 H17        -1.2338    1.7958    2.5966 H         1 <0>         0.1434
     38 H18        -2.7292    1.5410    1.6654 H         1 <0>         0.1270
     39 H19        -3.9600    2.3056    3.5593 H         1 <0>         0.4377
     40 H20        -2.5758    2.5415    4.4213 H         1 <0>         0.4429
     41 H21        -1.5426   -4.7646    2.9484 H         1 <0>         0.0544
     42 H22        -2.7039   -6.0418    3.3824 H         1 <0>         0.0711
     43 H23        -2.9497   -5.0801    1.9049 H         1 <0>         0.0536
     44 H24        -3.4966   -3.2774    5.7462 H         1 <0>         0.0594
     45 H25        -3.0233   -4.9891    5.6257 H         1 <0>         0.0698
     46 H26        -1.8620   -3.7118    5.1916 H         1 <0>         0.0555
     47 H27        -5.4716   -3.7204    4.2815 H         1 <0>         0.0652
     48 H28        -5.2441   -4.4704    2.6834 H         1 <0>         0.0609
     49 H29        -6.0937   -6.1203    4.3280 H         1 <0>         0.0598
     50 H30        -4.4591   -6.5547    3.7733 H         1 <0>         0.0602
     51 H31        -4.6866   -5.8047    5.3715 H         1 <0>         0.0609
     52 H32        -2.8780    3.4531    3.0825 H         1 <0>         0.4462
     53 H33        -1.8712   -0.6226   -1.9625 H         1 <0>         0.4672
@<TRIPOS>BOND
     1    1    2 1
     2    1   24 1
     3    1   25 1
     4    1   26 1
     5    2    3 1
     6    2   27 1
     7    2   28 1
     8    3    7 1
     9    3    4 2
    10    4    5 1
    11    4   53 1
    12    5    6 2
    13    5   29 1
    14    6    7 1
    15    6   30 1
    16    7    8 1
    17    8    9 1
    18    8   15 1
    19    8   10 1
    20   10   11 1
    21   10   31 1
    22   10   32 1
    23   11   12 1
    24   11   13 1
    25   11   19 1
    26   13   14 1
    27   13   33 1
    28   13   34 1
    29   14   15 1
    30   14   35 1
    31   14   36 1
    32   15   16 1
    33   15   17 1
    34   17   18 1
    35   17   37 1
    36   17   38 1
    37   18   39 1
    38   18   40 1
    39   18   52 1
    40   19   20 1
    41   19   21 1
    42   19   22 1
    43   20   41 1
    44   20   42 1
    45   20   43 1
    46   21   44 1
    47   21   45 1
    48   21   46 1
    49   22   23 1
    50   22   47 1
    51   22   48 1
    52   23   49 1
    53   23   50 1
    54   23   51 1
@<TRIPOS>MOLECULE
ZINC51730261
   53    54     0     0     0
SMALL
USER_CHARGES

@<TRIPOS>ATOM
      1 C1          1.3389    0.4131   -4.8837 C.3       1 <0>        -0.1656
      2 C2          0.4617    0.9790   -3.7652 C.3       1 <0>        -0.1080
      3 H1         -0.5017    1.2818   -4.1754 H         1 <0>         0.1104
      4 C3          0.2473   -0.0916   -2.6913 C.3       1 <0>        -0.1398
      5 C4          1.5954   -0.4560   -2.0658 C.3       1 <0>        -0.0406
      6 N1          2.1946    0.7374   -1.4564 N.4       1 <0>        -0.3887
      7 C5          2.4692    1.7409   -2.4918 C.3       1 <0>         0.0233
      8 H2          3.1162    1.3076   -3.2546 H         1 <0>         0.1502
      9 C6          1.1538    2.1910   -3.1351 C.3       1 <0>        -0.1359
     10 C7          3.1649    2.9480   -1.8595 C.3       1 <0>        -0.1888
     11 C8          3.4504    0.3671   -0.7902 C.3       1 <0>         0.0602
     12 H3          3.9039    1.2552   -0.3501 H         1 <0>         0.1693
     13 C9          3.1617   -0.6565    0.3097 C.3       1 <0>        -0.0293
     14 N2          2.1661   -0.1078    1.2401 N.4       1 <0>        -0.6498
     15 C10         4.3962   -0.2325   -1.7987 C.ar      1 <0>        -0.2178
     16 C11         4.1713   -1.5081   -2.2825 C.ar      1 <0>        -0.0665
     17 C12         5.0371   -2.0602   -3.2067 C.ar      1 <0>        -0.2053
     18 C13         6.1326   -1.3334   -3.6496 C.ar      1 <0>         0.1954
     19 C14         6.3559   -0.0536   -3.1630 C.ar      1 <0>        -0.1451
     20 C15         5.4842    0.4960   -2.2428 C.ar      1 <0>        -0.0354
     21 O1          6.9860   -1.8745   -4.5584 O.3       1 <0>        -0.2926
     22 C16         6.7290   -3.2187   -4.9697 C.3       1 <0>         0.0749
     23 C17         5.6765   -3.2198   -6.0802 C.3       1 <0>        -0.1847
     24 C18         8.0219   -3.8484   -5.4918 C.3       1 <0>        -0.1567
     25 H4          2.3020    0.1106   -4.4724 H         1 <0>         0.0501
     26 H5          0.8467   -0.4512   -5.3296 H         1 <0>         0.0743
     27 H6          1.4932    1.1768   -5.6461 H         1 <0>         0.0759
     28 H7         -0.4192    0.2948   -1.9202 H         1 <0>         0.0894
     29 H8         -0.1952   -0.9785   -3.1448 H         1 <0>         0.1213
     30 H9          1.4464   -1.2181   -1.3009 H         1 <0>         0.1220
     31 H10         2.2610   -0.8424   -2.8376 H         1 <0>         0.1544
     32 H11         1.3588    2.9344   -3.9055 H         1 <0>         0.1207
     33 H12         0.5061    2.6247   -2.3731 H         1 <0>         0.0905
     34 H13         4.1513    2.6527   -1.5019 H         1 <0>         0.0821
     35 H14         3.2695    3.7379   -2.6033 H         1 <0>         0.1174
     36 H15         2.5695    3.3134   -1.0228 H         1 <0>         0.0808
     37 H16         2.7748   -1.5718   -0.1382 H         1 <0>         0.1588
     38 H17         4.0817   -0.8776    0.8509 H         1 <0>         0.1862
     39 H18         2.4808    0.7890    1.5790 H         1 <0>         0.4460
     40 H19         1.2846    0.0037    0.7620 H         1 <0>         0.4261
     41 H20         3.3183   -2.0735   -1.9374 H         1 <0>         0.1305
     42 H21         4.8614   -3.0568   -3.5838 H         1 <0>         0.1495
     43 H22         7.2081    0.5142   -3.5062 H         1 <0>         0.1523
     44 H23         5.6551    1.4939   -1.8669 H         1 <0>         0.1427
     45 H24         6.3615   -3.7945   -4.1203 H         1 <0>         0.0784
     46 H25         5.4804   -4.2451   -6.3939 H         1 <0>         0.0850
     47 H26         4.7554   -2.7712   -5.7082 H         1 <0>         0.0572
     48 H27         6.0439   -2.6439   -6.9296 H         1 <0>         0.0767
     49 H28         8.7717   -3.8476   -4.7006 H         1 <0>         0.0709
     50 H29         7.8258   -4.8737   -5.8055 H         1 <0>         0.0889
     51 H30         8.3894   -3.2725   -6.3412 H         1 <0>         0.0754
     52 H31         1.5566    1.1230   -0.7765 H         1 <0>         0.4006
     53 H32         2.0491   -0.7393    2.0183 H         1 <0>         0.4624
@<TRIPOS>BOND
     1    1    2 1
     2    1   25 1
     3    1   26 1
     4    1   27 1
     5    2    3 1
     6    2    9 1
     7    2    4 1
     8    4    5 1
     9    4   28 1
    10    4   29 1
    11    5    6 1
    12    5   30 1
    13    5   31 1
    14    6    7 1
    15    6   11 1
    16    6   52 1
    17    7    8 1
    18    7    9 1
    19    7   10 1
    20    9   32 1
    21    9   33 1
    22   10   34 1
    23   10   35 1
    24   10   36 1
    25   11   12 1
    26   11   13 1
    27   11   15 1
    28   13   14 1
    29   13   37 1
    30   13   38 1
    31   14   39 1
    32   14   40 1
    33   14   53 1
    34   15   20 ar
    35   15   16 ar
    36   16   17 ar
    37   16   41 1
    38   17   18 ar
    39   17   42 1
    40   18   19 ar
    41   18   21 1
    42   19   20 ar
    43   19   43 1
    44   20   44 1
    45   21   22 1
    46   22   23 1
    47   22   24 1
    48   22   45 1
    49   23   46 1
    50   23   47 1
    51   23   48 1
    52   24   49 1
    53   24   50 1
    54   24   51 1
@<TRIPOS>MOLECULE
ZINC54559645
   59    60     0     0     0
SMALL
USER_CHARGES

@<TRIPOS>ATOM
      1 C1         -1.1203   -0.1387    0.2375 C.3       1 <0>        -0.1564
      2 C2         -0.6311   -1.5251    0.6611 C.3       1 <0>        -0.0915
      3 C3          0.0613   -2.2050   -0.5217 C.3       1 <0>        -0.1578
      4 C4          0.3584   -1.3849    1.8195 C.3       1 <0>        -0.0850
      5 H1          1.2083   -0.7816    1.5004 H         1 <0>         0.0817
      6 C5          0.8476   -2.7713    2.2432 C.3       1 <0>        -0.1218
      7 C6          1.8372   -2.6310    3.4016 C.3       1 <0>        -0.1400
      8 C7          1.1447   -1.9511    4.5844 C.3       1 <0>         0.0308
      9 H2          0.2948   -2.5544    4.9036 H         1 <0>         0.1550
     10 C8          0.6556   -0.5647    4.1608 C.3       1 <0>        -0.1359
     11 H3          1.5054    0.0386    3.8416 H         1 <0>         0.1188
     12 C9         -0.3340   -0.7049    3.0024 C.3       1 <0>        -0.1367
     13 C10        -0.0369    0.1152    5.3436 C.3       1 <0>        -0.0309
     14 N1          0.1736    1.5670    5.2658 N.4       1 <0>        -0.3816
     15 C11         1.6132    1.8526    5.2807 C.3       1 <0>        -0.0216
     16 C12         1.8368    3.3664    5.2816 C.3       1 <0>        -0.1463
     17 C13         1.2080    3.9704    4.0226 C.3       1 <0>        -0.1402
     18 C14        -0.2781    3.6032    3.9797 C.3       1 <0>        -0.1469
     19 C15        -0.4233    2.0807    4.0271 C.3       1 <0>         0.0219
     20 H4          0.0856    1.6408    3.1694 H         1 <0>         0.1503
     21 C16        -1.9068    1.7089    3.9841 C.3       1 <0>        -0.1599
     22 C17        -2.6246    2.3360    5.1809 C.3       1 <0>         0.0621
     23 O1         -4.0252    2.0669    5.0908 O.3       1 <0>        -0.5594
     24 N2          2.0948   -1.8164    5.6966 N.4       1 <0>        -0.5153
     25 C18         2.4728   -3.1504    6.1820 C.3       1 <0>        -0.0551
     26 H5         -0.2704    0.4646   -0.0817 H         1 <0>         0.0577
     27 H6         -1.8253   -0.2386   -0.5878 H         1 <0>         0.0678
     28 H7         -1.6136    0.3457    1.0802 H         1 <0>         0.0504
     29 H8         -1.4810   -2.1284    0.9803 H         1 <0>         0.0771
     30 H9          0.9112   -1.6018   -0.8409 H         1 <0>         0.0582
     31 H10         0.4098   -3.1928   -0.2199 H         1 <0>         0.0600
     32 H11        -0.6437   -2.3050   -1.3470 H         1 <0>         0.0658
     33 H12        -0.0023   -3.3746    2.5623 H         1 <0>         0.0817
     34 H13         1.3409   -3.2557    1.4005 H         1 <0>         0.0993
     35 H14         2.1857   -3.6187    3.7034 H         1 <0>         0.1017
     36 H15         2.6871   -2.0277    3.0824 H         1 <0>         0.0921
     37 H16        -0.6825    0.2828    2.7006 H         1 <0>         0.1005
     38 H17        -1.1839   -1.3082    3.3216 H         1 <0>         0.0951
     39 H18        -1.1051   -0.0993    5.3115 H         1 <0>         0.1583
     40 H19         0.3817   -0.2631    6.2762 H         1 <0>         0.1172
     41 H20         2.0599    1.4194    6.1756 H         1 <0>         0.1269
     42 H21         2.0787    1.4176    4.3963 H         1 <0>         0.1308
     43 H22         1.3719    3.8025    6.1657 H         1 <0>         0.0937
     44 H23         2.9063    3.5764    5.2909 H         1 <0>         0.1194
     45 H24         1.3149    5.0549    4.0461 H         1 <0>         0.1038
     46 H25         1.7073    3.5729    3.1391 H         1 <0>         0.0843
     47 H26        -0.7870    4.0442    4.8368 H         1 <0>         0.0944
     48 H27        -0.7203    3.9825    3.0584 H         1 <0>         0.1213
     49 H28        -2.3481    2.0814    3.0597 H         1 <0>         0.1281
     50 H29        -2.0110    0.6246    4.0253 H         1 <0>         0.1002
     51 H30        -2.2315    1.9105    6.1042 H         1 <0>         0.0327
     52 H31        -2.4609    3.4136    5.1789 H         1 <0>         0.0663
     53 H32        -4.5442    2.4357    5.8186 H         1 <0>         0.4011
     54 H33         2.9186   -1.3286    5.3781 H         1 <0>         0.4294
     55 H34         3.1778   -3.0505    7.0073 H         1 <0>         0.1352
     56 H35         1.5829   -3.6774    6.5262 H         1 <0>         0.1305
     57 H36         2.9381   -3.7131    5.3728 H         1 <0>         0.1334
     58 H37         1.6641   -1.2955    6.4458 H         1 <0>         0.4172
     59 H38        -0.2639    2.0122    6.0585 H         1 <0>         0.4301
@<TRIPOS>BOND
     1    1    2 1
     2    1   26 1
     3    1   27 1
     4    1   28 1
     5    2    3 1
     6    2    4 1
     7    2   29 1
     8    3   30 1
     9    3   31 1
    10    3   32 1
    11    4    5 1
    12    4   12 1
    13    4    6 1
    14    6    7 1
    15    6   33 1
    16    6   34 1
    17    7    8 1
    18    7   35 1
    19    7   36 1
    20    8    9 1
    21    8   10 1
    22    8   24 1
    23   10   11 1
    24   10   12 1
    25   10   13 1
    26   12   37 1
    27   12   38 1
    28   13   14 1
    29   13   39 1
    30   13   40 1
    31   14   19 1
    32   14   15 1
    33   14   59 1
    34   15   16 1
    35   15   41 1
    36   15   42 1
    37   16   17 1
    38   16   43 1
    39   16   44 1
    40   17   18 1
    41   17   45 1
    42   17   46 1
    43   18   19 1
    44   18   47 1
    45   18   48 1
    46   19   20 1
    47   19   21 1
    48   21   22 1
    49   21   49 1
    50   21   50 1
    51   22   23 1
    52   22   51 1
    53   22   52 1
    54   23   53 1
    55   24   25 1
    56   24   54 1
    57   24   58 1
    58   25   55 1
    59   25   56 1
    60   25   57 1
@<TRIPOS>MOLECULE
ZINC63139069
   56    57     0     0     0
SMALL
USER_CHARGES

@<TRIPOS>ATOM
      1 C1         -0.0187    1.5258    0.0104 C.3       1 <0>        -0.1875
      2 C2          0.0021   -0.0041    0.0020 C.3       1 <0>         0.0246
      3 C3         -1.4333   -0.5336    0.0129 C.3       1 <0>        -0.1880
      4 N1          0.6897   -0.4778   -1.2066 N.4       1 <0>        -0.5088
      5 C4          2.1002   -0.0703   -1.1590 C.3       1 <0>        -0.0057
      6 C5          2.8163   -0.5637   -2.4178 C.3       1 <0>        -0.1389
      7 H1          2.6785   -1.6404   -2.5166 H         1 <0>         0.1194
      8 C6          2.2346    0.1412   -3.6466 C.3       1 <0>        -0.1511
      9 C7          3.0100   -0.3007   -4.8911 C.3       1 <0>        -0.1396
     10 C8          4.4961    0.0070   -4.6954 C.3       1 <0>        -0.0244
     11 N2          4.9988   -0.7165   -3.5214 N.4       1 <0>        -0.3675
     12 C9          4.3098   -0.2472   -2.3133 C.3       1 <0>        -0.0004
     13 C10         6.4420   -0.4799   -3.3833 C.3       1 <0>        -0.0337
     14 C11         7.1645   -1.0800   -4.5618 C.2       1 <0>         0.4985
     15 O1          6.5388   -1.6488   -5.4312 O.2       1 <0>        -0.5281
     16 N3          8.5060   -0.9847   -4.6497 N.am      1 <0>        -0.6934
     17 C12         9.2084   -1.5680   -5.7954 C.3       1 <0>         0.1410
     18 C13         9.4780   -3.0501   -5.5276 C.3       1 <0>        -0.1272
     19 C14        10.2115   -3.6593   -6.7241 C.3       1 <0>        -0.1197
     20 C15        11.5396   -2.9291   -6.9340 C.3       1 <0>        -0.1276
     21 C16        11.2699   -1.4471   -7.2018 C.3       1 <0>        -0.1187
     22 C17        10.5364   -0.8378   -6.0052 C.3       1 <0>        -0.1282
     23 H2          1.0039    1.9031    0.0027 H         1 <0>         0.0791
     24 H3         -0.5459    1.8868   -0.8726 H         1 <0>         0.0841
     25 H4         -0.5289    1.8773    0.9072 H         1 <0>         0.1126
     26 H5          0.5293   -0.3651    0.8851 H         1 <0>         0.1434
     27 H6         -1.9605   -0.1726   -0.8702 H         1 <0>         0.0838
     28 H7         -1.4185   -1.6235    0.0069 H         1 <0>         0.0844
     29 H8         -1.9435   -0.1821    0.9097 H         1 <0>         0.1132
     30 H9          0.6317   -1.4840   -1.2540 H         1 <0>         0.4315
     31 H10         2.1628    1.0167   -1.1079 H         1 <0>         0.1455
     32 H11         2.5740   -0.5034   -0.2781 H         1 <0>         0.1450
     33 H12         1.1840   -0.1271   -3.7574 H         1 <0>         0.0918
     34 H13         2.3255    1.2205   -3.5247 H         1 <0>         0.0995
     35 H14         2.8768   -1.3720   -5.0416 H         1 <0>         0.0957
     36 H15         2.6382    0.2389   -5.7622 H         1 <0>         0.1244
     37 H16         5.0510   -0.3061   -5.5798 H         1 <0>         0.1567
     38 H17         4.6281    1.0785   -4.5453 H         1 <0>         0.1309
     39 H18         4.4465    0.8295   -2.2135 H         1 <0>         0.1427
     40 H19         4.7265   -0.7480   -1.4394 H         1 <0>         0.1434
     41 H20         6.6327    0.5927   -3.3480 H         1 <0>         0.1626
     42 H21         6.7997   -0.9430   -2.4636 H         1 <0>         0.1633
     43 H22         9.0065   -0.5298   -3.9543 H         1 <0>         0.4110
     44 H23         8.5927   -1.4665   -6.6891 H         1 <0>         0.0983
     45 H24        10.0937   -3.1517   -4.6339 H         1 <0>         0.0687
     46 H25         8.5319   -3.5703   -5.3781 H         1 <0>         0.0646
     47 H26        10.4037   -4.7152   -6.5333 H         1 <0>         0.0727
     48 H27         9.5959   -3.5578   -7.6178 H         1 <0>         0.0671
     49 H28        12.1552   -3.0307   -6.0402 H         1 <0>         0.0664
     50 H29        12.0621   -3.3631   -7.7864 H         1 <0>         0.0730
     51 H30        12.2160   -0.9268   -7.3513 H         1 <0>         0.0766
     52 H31        10.6542   -1.3455   -8.0955 H         1 <0>         0.0682
     53 H32        10.3443    0.2180   -6.1960 H         1 <0>         0.0721
     54 H33        11.1520   -0.9394   -5.1115 H         1 <0>         0.0737
     55 H34         4.8318   -1.7045   -3.6396 H         1 <0>         0.4321
     56 H35         0.2511   -0.0769   -2.0221 H         1 <0>         0.4271
@<TRIPOS>BOND
     1    1    2 1
     2    1   23 1
     3    1   24 1
     4    1   25 1
     5    2    3 1
     6    2    4 1
     7    2   26 1
     8    3   27 1
     9    3   28 1
    10    3   29 1
    11    4    5 1
    12    4   30 1
    13    4   56 1
    14    5    6 1
    15    5   31 1
    16    5   32 1
    17    6    7 1
    18    6   12 1
    19    6    8 1
    20    8    9 1
    21    8   33 1
    22    8   34 1
    23    9   10 1
    24    9   35 1
    25    9   36 1
    26   10   11 1
    27   10   37 1
    28   10   38 1
    29   11   12 1
    30   11   13 1
    31   11   55 1
    32   12   39 1
    33   12   40 1
    34   13   14 1
    35   13   41 1
    36   13   42 1
    37   14   15 2
    38   14   16 am
    39   16   17 1
    40   16   43 1
    41   17   22 1
    42   17   18 1
    43   17   44 1
    44   18   19 1
    45   18   45 1
    46   18   46 1
    47   19   20 1
    48   19   47 1
    49   19   48 1
    50   20   21 1
    51   20   49 1
    52   20   50 1
    53   21   22 1
    54   21   51 1
    55   21   52 1
    56   22   53 1
    57   22   54 1
@<TRIPOS>MOLECULE
ZINC36953233
   46    47     0     0     0
SMALL
USER_CHARGES

@<TRIPOS>ATOM
      1 C1          0.4510    1.5636   -0.0388 C.3       1 <0>        -0.1898
      2 C2          0.2709    0.0443   -0.0227 C.3       1 <0>         0.0350
      3 H1         -0.7924   -0.1948   -0.0027 H         1 <0>         0.1477
      4 C3          0.9049   -0.5572   -1.2787 C.3       1 <0>        -0.1658
      5 C4          0.7219   -2.0775   -1.2583 C.3       1 <0>         0.0092
      6 H2         -0.3410   -2.3171   -1.2891 H         1 <0>         0.1586
      7 C5          1.3362   -2.6384    0.0275 C.3       1 <0>        -0.1295
      8 H3          2.4086   -2.4433    0.0338 H         1 <0>         0.1205
      9 C6          0.6862   -1.9598    1.2351 C.3       1 <0>        -0.0014
     10 N1          0.9194   -0.5120    1.1708 N.4       1 <0>        -0.3871
     11 C7          0.3620    0.1254    2.3712 C.3       1 <0>        -0.0565
     12 C8          1.0911   -4.1472    0.0948 C.3       1 <0>        -0.1745
     13 N2          1.3928   -2.6687   -2.4237 N.4       1 <0>        -0.5049
     14 C9          0.7170   -2.2306   -3.6522 C.3       1 <0>         0.0799
     15 H4          0.6697   -1.1418   -3.6724 H         1 <0>         0.1523
     16 C10         1.4978   -2.7298   -4.8696 C.3       1 <0>        -0.1836
     17 C11        -0.6801   -2.7947   -3.6856 C.ar      1 <0>        -0.1354
     18 C12        -0.9130   -4.0878   -3.2552 C.ar      1 <0>        -0.1083
     19 C13        -2.1934   -4.6074   -3.2848 C.ar      1 <0>        -0.1075
     20 C14        -3.2441   -3.8330   -3.7453 C.ar      1 <0>         0.1048
     21 C15        -3.0106   -2.5361   -4.1764 C.ar      1 <0>         0.0902
     22 C16        -1.7279   -2.0170   -4.1410 C.ar      1 <0>        -0.0996
     23 F1         -4.0345   -1.7784   -4.6267 F         1 <0>        -0.1065
     24 F2         -4.4959   -4.3403   -3.7749 F         1 <0>        -0.1044
     25 H5          1.5142    1.8033   -0.0587 H         1 <0>         0.0881
     26 H6         -0.0313    1.9773   -0.9244 H         1 <0>         0.1121
     27 H7         -0.0014    1.9926    0.8553 H         1 <0>         0.0971
     28 H8          0.4213   -0.1442   -2.1640 H         1 <0>         0.1359
     29 H9          1.9683   -0.3188   -1.2995 H         1 <0>         0.1162
     30 H10        -0.3860   -2.1558    1.2280 H         1 <0>         0.1420
     31 H11         1.1211   -2.3571    2.1523 H         1 <0>         0.1542
     32 H12        -0.7104   -0.0636    2.4183 H         1 <0>         0.1283
     33 H13         0.8429   -0.2870    3.2582 H         1 <0>         0.1334
     34 H14         0.5400    1.1999    2.3279 H         1 <0>         0.1350
     35 H15         1.5515   -4.6290   -0.7677 H         1 <0>         0.0736
     36 H16         1.5285   -4.5458    1.0102 H         1 <0>         0.1018
     37 H17         0.0185   -4.3416    0.0901 H         1 <0>         0.0876
     38 H18         2.3562   -2.3695   -2.4448 H         1 <0>         0.4351
     39 H19         1.5861   -3.8153   -4.8245 H         1 <0>         0.0885
     40 H20         0.9710   -2.4457   -5.7806 H         1 <0>         0.1173
     41 H21         2.4924   -2.2841   -4.8711 H         1 <0>         0.0931
     42 H22        -0.0936   -4.6926   -2.8958 H         1 <0>         0.1360
     43 H23        -2.3740   -5.6179   -2.9490 H         1 <0>         0.1639
     44 H24        -1.5453   -1.0057   -4.4730 H         1 <0>         0.1593
     45 H25         1.9115   -0.3333    1.1275 H         1 <0>         0.4270
     46 H26         1.3544   -3.6749   -2.3593 H         1 <0>         0.4310
@<TRIPOS>BOND
     1    1    2 1
     2    1   25 1
     3    1   26 1
     4    1   27 1
     5    2    3 1
     6    2   10 1
     7    2    4 1
     8    4    5 1
     9    4   28 1
    10    4   29 1
    11    5    6 1
    12    5    7 1
    13    5   13 1
    14    7    8 1
    15    7    9 1
    16    7   12 1
    17    9   10 1
    18    9   30 1
    19    9   31 1
    20   10   11 1
    21   10   45 1
    22   11   32 1
    23   11   33 1
    24   11   34 1
    25   12   35 1
    26   12   36 1
    27   12   37 1
    28   13   14 1
    29   13   38 1
    30   13   46 1
    31   14   15 1
    32   14   16 1
    33   14   17 1
    34   16   39 1
    35   16   40 1
    36   16   41 1
    37   17   22 ar
    38   17   18 ar
    39   18   19 ar
    40   18   42 1
    41   19   20 ar
    42   19   43 1
    43   20   21 ar
    44   20   24 1
    45   21   22 ar
    46   21   23 1
    47   22   44 1
@<TRIPOS>MOLECULE
ZINC40623173
   56    58     0     0     0
SMALL
USER_CHARGES

@<TRIPOS>ATOM
      1 C1         -0.0187    1.5258    0.0104 C.3       1 <0>        -0.1862
      2 C2          0.0021   -0.0041    0.0020 C.3       1 <0>         0.0278
      3 C3          0.7421   -0.5109    1.2415 C.3       1 <0>        -0.1861
      4 N1         -1.3761   -0.5125    0.0124 N.4       1 <0>        -0.3924
      5 C4         -2.0799   -0.1036   -1.2224 C.3       1 <0>        -0.0065
      6 C5         -3.0200   -1.2599   -1.6105 C.3       1 <0>        -0.1615
      7 C6         -2.7800   -2.3513   -0.5422 C.3       1 <0>        -0.1431
      8 H1         -3.5281   -2.2886    0.2480 H         1 <0>         0.1308
      9 C7         -1.3741   -1.9978    0.0044 C.3       1 <0>         0.0049
     10 C8         -2.7835   -3.7424   -1.1792 C.3       1 <0>        -0.0030
     11 N2         -4.1288   -4.0460   -1.6852 N.4       1 <0>        -0.5085
     12 C9         -4.1321   -5.3816   -2.2968 C.3       1 <0>         0.0249
     13 H2         -3.7637   -6.1120   -1.5764 H         1 <0>         0.1439
     14 C10        -3.2265   -5.3801   -3.5300 C.3       1 <0>        -0.1417
     15 C11        -3.2299   -6.7712   -4.1669 C.3       1 <0>        -0.1136
     16 C12        -4.6560   -7.1387   -4.5818 C.3       1 <0>        -0.0943
     17 H3         -4.6585   -8.1297   -5.0356 H         1 <0>         0.0910
     18 C13        -5.1731   -6.1135   -5.5930 C.3       1 <0>        -0.1151
     19 C14        -6.5992   -6.4809   -6.0079 C.3       1 <0>        -0.1284
     20 C15        -7.5048   -6.4824   -4.7747 C.3       1 <0>        -0.1229
     21 C16        -6.9877   -7.5076   -3.7635 C.3       1 <0>        -0.1202
     22 C17        -5.5616   -7.1402   -3.3486 C.3       1 <0>        -0.0716
     23 H4         -5.1932   -7.8705   -2.6282 H         1 <0>         0.0823
     24 C18        -5.5582   -5.7490   -2.7117 C.3       1 <0>        -0.1434
     25 H5          1.0039    1.9031    0.0027 H         1 <0>         0.1112
     26 H6         -0.5459    1.8868   -0.8726 H         1 <0>         0.0814
     27 H7         -0.5289    1.8773    0.9072 H         1 <0>         0.0837
     28 H8          0.5123   -0.3556   -0.8948 H         1 <0>         0.1385
     29 H9          0.2319   -0.1594    2.1383 H         1 <0>         0.0838
     30 H10         0.7568   -1.6008    1.2356 H         1 <0>         0.0794
     31 H11         1.7647   -0.1336    1.2338 H         1 <0>         0.1113
     32 H12        -2.6600    0.8004   -1.0371 H         1 <0>         0.1417
     33 H13        -1.3583    0.0720   -2.0203 H         1 <0>         0.1395
     34 H14        -4.0580   -0.9281   -1.5859 H         1 <0>         0.1170
     35 H15        -2.7662   -1.6377   -2.6010 H         1 <0>         0.1111
     36 H16        -0.5968   -2.3779   -0.6585 H         1 <0>         0.1438
     37 H17        -1.2447   -2.3878    1.0140 H         1 <0>         0.1493
     38 H18        -2.0711   -3.7662   -2.0039 H         1 <0>         0.1443
     39 H19        -2.5001   -4.4845   -0.4328 H         1 <0>         0.1482
     40 H20        -4.7882   -4.0239   -0.9218 H         1 <0>         0.4321
     41 H21        -3.5949   -4.6498   -4.2504 H         1 <0>         0.0906
     42 H22        -2.2105   -5.1184   -3.2344 H         1 <0>         0.0826
     43 H23        -2.5848   -6.7702   -5.0455 H         1 <0>         0.0883
     44 H24        -2.8615   -7.5016   -3.4465 H         1 <0>         0.0770
     45 H25        -5.1707   -5.1224   -5.1393 H         1 <0>         0.0550
     46 H26        -4.5280   -6.1124   -6.4716 H         1 <0>         0.0693
     47 H27        -6.9676   -5.7506   -6.7283 H         1 <0>         0.0679
     48 H28        -6.6017   -7.4720   -6.4617 H         1 <0>         0.0703
     49 H29        -7.5023   -5.4913   -4.3209 H         1 <0>         0.0569
     50 H30        -8.5208   -6.7442   -5.0703 H         1 <0>         0.0712
     51 H31        -7.6328   -7.5086   -2.8849 H         1 <0>         0.0690
     52 H32        -6.9901   -8.4986   -4.2172 H         1 <0>         0.0774
     53 H33        -6.2033   -5.7501   -1.8331 H         1 <0>         0.0893
     54 H34        -5.9265   -5.0187   -3.4321 H         1 <0>         0.0953
     55 H35        -4.3911   -3.3590   -2.3762 H         1 <0>         0.4255
     56 H36        -1.8678   -0.1696    0.8241 H         1 <0>         0.4308
@<TRIPOS>BOND
     1    1    2 1
     2    1   25 1
     3    1   26 1
     4    1   27 1
     5    2    3 1
     6    2    4 1
     7    2   28 1
     8    3   29 1
     9    3   30 1
    10    3   31 1
    11    4    9 1
    12    4    5 1
    13    4   56 1
    14    5    6 1
    15    5   32 1
    16    5   33 1
    17    6    7 1
    18    6   34 1
    19    6   35 1
    20    7    8 1
    21    7    9 1
    22    7   10 1
    23    9   36 1
    24    9   37 1
    25   10   11 1
    26   10   38 1
    27   10   39 1
    28   11   12 1
    29   11   40 1
    30   11   55 1
    31   12   13 1
    32   12   24 1
    33   12   14 1
    34   14   15 1
    35   14   41 1
    36   14   42 1
    37   15   16 1
    38   15   43 1
    39   15   44 1
    40   16   17 1
    41   16   22 1
    42   16   18 1
    43   18   19 1
    44   18   45 1
    45   18   46 1
    46   19   20 1
    47   19   47 1
    48   19   48 1
    49   20   21 1
    50   20   49 1
    51   20   50 1
    52   21   22 1
    53   21   51 1
    54   21   52 1
    55   22   23 1
    56   22   24 1
    57   24   53 1
    58   24   54 1
@<TRIPOS>MOLECULE
ZINC50953836
   47    49     0     0     0
SMALL
USER_CHARGES

@<TRIPOS>ATOM
      1 C1         -0.0187    1.5258    0.0104 C.3       1 <0>        -0.1796
      2 C2          0.0021   -0.0041    0.0020 C.3       1 <0>         0.1003
      3 H1         -1.0197   -0.3835    0.0097 H         1 <0>         0.1462
      4 C3          0.7221   -0.4990   -1.2485 C.2       1 <0>        -0.1492
      5 C4          0.5711    0.0688   -2.5110 C.2       1 <0>        -0.1572
      6 C5          1.2533   -0.4354   -3.5660 C.2       1 <0>        -0.1428
      7 S1          2.1668   -1.7726   -2.8098 S.3       1 <0>         0.1563
      8 C6          1.5724   -1.5602   -1.1565 C.2       1 <0>        -0.2051
      9 C7          1.8935   -2.3348    0.0799 C.3       1 <0>        -0.0575
     10 C8          0.8525   -1.9561    1.1476 C.3       1 <0>        -0.0055
     11 N1          0.7177   -0.4931    1.1866 N.4       1 <0>        -0.3825
     12 C9         -0.0240   -0.1049    2.3937 C.3       1 <0>        -0.0156
     13 C10         0.7780   -0.5019    3.6347 C.3       1 <0>        -0.1672
     14 C11         0.0055   -0.0976    4.8920 C.3       1 <0>        -0.1441
     15 C12         0.8074   -0.4945    6.1330 C.3       1 <0>         0.0300
     16 H2          1.0408   -1.5584    6.0893 H         1 <0>         0.1430
     17 C13        -0.0193   -0.2055    7.3878 C.3       1 <0>        -0.1419
     18 C14         0.7872   -0.6045    8.6270 C.3       1 <0>        -0.1413
     19 C15         2.1189    0.1515    8.6225 C.3       1 <0>        -0.1503
     20 C16         2.8664   -0.1508    7.3219 C.3       1 <0>        -0.0076
     21 N2          2.0548    0.2780    6.1765 N.4       1 <0>        -0.5069
     22 H3          1.0039    1.9031    0.0027 H         1 <0>         0.0838
     23 H4         -0.5459    1.8868   -0.8726 H         1 <0>         0.1126
     24 H5         -0.5289    1.8773    0.9072 H         1 <0>         0.0831
     25 H6         -0.0906    0.9112   -2.6486 H         1 <0>         0.1448
     26 H7          1.2472   -0.1133   -4.5968 H         1 <0>         0.2025
     27 H8          1.8383   -3.4033   -0.1281 H         1 <0>         0.1307
     28 H9          2.8930   -2.0762    0.4295 H         1 <0>         0.1092
     29 H10        -0.1089   -2.4033    0.8950 H         1 <0>         0.1378
     30 H11         1.1807   -2.3179    2.1221 H         1 <0>         0.1388
     31 H12        -0.1813    0.9737    2.3924 H         1 <0>         0.1408
     32 H13        -0.9884   -0.6127    2.4066 H         1 <0>         0.1409
     33 H14         0.9352   -1.5805    3.6360 H         1 <0>         0.1052
     34 H15         1.7424    0.0059    3.6218 H         1 <0>         0.0817
     35 H16        -0.1518    0.9810    4.8907 H         1 <0>         0.1019
     36 H17        -0.9589   -0.6053    4.9049 H         1 <0>         0.1254
     37 H18        -0.2530    0.8582    7.4326 H         1 <0>         0.0921
     38 H19        -0.9444   -0.7810    7.3547 H         1 <0>         0.1149
     39 H20         0.2256   -0.3484    9.5254 H         1 <0>         0.1002
     40 H21         0.9772   -1.6777    8.6081 H         1 <0>         0.0842
     41 H22         1.9296    1.2227    8.6929 H         1 <0>         0.0906
     42 H23         2.7222   -0.1688    9.4719 H         1 <0>         0.1175
     43 H24         3.8152    0.3859    7.3156 H         1 <0>         0.1372
     44 H25         3.0555   -1.2220    7.2526 H         1 <0>         0.1323
     45 H26         2.5726    0.1270    5.3238 H         1 <0>         0.4204
     46 H27         1.8384    1.2594    6.2669 H         1 <0>         0.4283
     47 H28         1.6366   -0.0774    1.2144 H         1 <0>         0.4215
@<TRIPOS>BOND
     1    1    2 1
     2    1   22 1
     3    1   23 1
     4    1   24 1
     5    2    3 1
     6    2   11 1
     7    2    4 1
     8    4    8 2
     9    4    5 1
    10    5    6 2
    11    5   25 1
    12    6    7 1
    13    6   26 1
    14    7    8 1
    15    8    9 1
    16    9   10 1
    17    9   27 1
    18    9   28 1
    19   10   11 1
    20   10   29 1
    21   10   30 1
    22   11   12 1
    23   11   47 1
    24   12   13 1
    25   12   31 1
    26   12   32 1
    27   13   14 1
    28   13   33 1
    29   13   34 1
    30   14   15 1
    31   14   35 1
    32   14   36 1
    33   15   16 1
    34   15   21 1
    35   15   17 1
    36   17   18 1
    37   17   37 1
    38   17   38 1
    39   18   19 1
    40   18   39 1
    41   18   40 1
    42   19   20 1
    43   19   41 1
    44   19   42 1
    45   20   21 1
    46   20   43 1
    47   20   44 1
    48   21   45 1
    49   21   46 1
@<TRIPOS>MOLECULE
ZINC53873364
   56    58     0     0     0
SMALL
USER_CHARGES

@<TRIPOS>ATOM
      1 C1          0.3699    1.3806    0.1299 C.3       1 <0>        -0.1595
      2 C2          0.2654   -0.1455    0.0997 C.3       1 <0>        -0.1001
      3 H1         -0.7844   -0.4373    0.0704 H         1 <0>         0.0707
      4 C3          0.9785   -0.6811   -1.1435 C.3       1 <0>        -0.1188
      5 C4          0.8740   -2.2072   -1.1737 C.3       1 <0>        -0.1492
      6 C5          1.5300   -2.7882    0.0804 C.3       1 <0>         0.0334
      7 H2          2.5798   -2.4964    0.1097 H         1 <0>         0.1623
      8 C6          0.8169   -2.2527    1.3237 C.3       1 <0>        -0.1320
      9 H3          1.2842   -2.6666    2.2172 H         1 <0>         0.1187
     10 C7          0.9214   -0.7266    1.3539 C.3       1 <0>        -0.1252
     11 C8         -0.6567   -2.6623    1.2825 C.3       1 <0>        -0.0542
     12 N1         -1.3139   -2.2524    2.5307 N.4       1 <0>        -0.3828
     13 C9         -0.7840   -3.0499    3.6572 C.3       1 <0>        -0.0173
     14 C10        -2.0008   -3.2763    4.5886 C.3       1 <0>        -0.1429
     15 C11        -3.1498   -3.4636    3.5631 C.3       1 <0>        -0.1436
     16 C12        -2.7654   -2.4906    2.4287 C.3       1 <0>         0.0253
     17 H4         -3.3047   -1.5509    2.5476 H         1 <0>         0.1476
     18 C13        -3.0961   -3.1161    1.0721 C.3       1 <0>        -0.1132
     19 C14        -4.6240   -3.2589    0.9145 C.3       1 <0>        -0.1194
     20 C15        -4.8044   -4.6002    0.1612 C.3       1 <0>        -0.1282
     21 C16        -3.7038   -5.4935    0.7854 C.3       1 <0>        -0.1287
     22 C17        -2.5110   -4.5369    0.9901 C.3       1 <0>        -0.1424
     23 N2          1.4296   -4.2535    0.0514 N.4       1 <0>        -0.5147
     24 C18         2.2145   -4.7758   -1.0751 C.3       1 <0>        -0.0557
     25 H5          1.4197    1.6724    0.1592 H         1 <0>         0.0682
     26 H6         -0.0975    1.7945   -0.7636 H         1 <0>         0.0713
     27 H7         -0.1381    1.7621    1.0156 H         1 <0>         0.0636
     28 H8          0.5111   -0.2671   -2.0370 H         1 <0>         0.0967
     29 H9          2.0283   -0.3893   -1.1142 H         1 <0>         0.0868
     30 H10        -0.1758   -2.4990   -1.2031 H         1 <0>         0.0854
     31 H11         1.3820   -2.5887   -2.0595 H         1 <0>         0.1047
     32 H12         1.9712   -0.4348    1.3832 H         1 <0>         0.1062
     33 H13         0.4134   -0.3451    2.2396 H         1 <0>         0.0810
     34 H14        -1.1454   -2.1764    0.4380 H         1 <0>         0.1549
     35 H15        -0.7301   -3.7441    1.1715 H         1 <0>         0.1323
     36 H16        -0.3982   -4.0040    3.2982 H         1 <0>         0.1257
     37 H17        -0.0037   -2.4966    4.1799 H         1 <0>         0.1398
     38 H18        -1.8677   -4.1729    5.1940 H         1 <0>         0.1226
     39 H19        -2.1780   -2.4045    5.2185 H         1 <0>         0.1053
     40 H20        -3.1767   -4.4902    3.1978 H         1 <0>         0.1084
     41 H21        -4.1076   -3.1845    4.0022 H         1 <0>         0.1197
     42 H22        -2.6931   -2.4994    0.2688 H         1 <0>         0.0962
     43 H23        -5.1059   -3.3021    1.8912 H         1 <0>         0.0826
     44 H24        -5.0256   -2.4339    0.3261 H         1 <0>         0.0846
     45 H25        -5.7935   -5.0183    0.3483 H         1 <0>         0.0846
     46 H26        -4.6352   -4.4688   -0.9076 H         1 <0>         0.0757
     47 H27        -4.0371   -5.8976    1.7413 H         1 <0>         0.0781
     48 H28        -3.4338   -6.2993    0.1029 H         1 <0>         0.0789
     49 H29        -1.8247   -4.6100    0.1464 H         1 <0>         0.0655
     50 H30        -1.9914   -4.7808    1.9167 H         1 <0>         0.0723
     51 H31         1.7880   -4.6323    0.9153 H         1 <0>         0.4322
     52 H32         2.1400   -5.8631   -1.0967 H         1 <0>         0.1354
     53 H33         1.8274   -4.3666   -2.0083 H         1 <0>         0.1306
     54 H34         3.2583   -4.4854   -0.9564 H         1 <0>         0.1331
     55 H35        -1.1417   -1.2727    2.7002 H         1 <0>         0.4292
     56 H36         0.4634   -4.5223   -0.0585 H         1 <0>         0.4186
@<TRIPOS>BOND
     1    1    2 1
     2    1   25 1
     3    1   26 1
     4    1   27 1
     5    2    3 1
     6    2   10 1
     7    2    4 1
     8    4    5 1
     9    4   28 1
    10    4   29 1
    11    5    6 1
    12    5   30 1
    13    5   31 1
    14    6    7 1
    15    6    8 1
    16    6   23 1
    17    8    9 1
    18    8   10 1
    19    8   11 1
    20   10   32 1
    21   10   33 1
    22   11   12 1
    23   11   34 1
    24   11   35 1
    25   12   16 1
    26   12   13 1
    27   12   55 1
    28   13   14 1
    29   13   36 1
    30   13   37 1
    31   14   15 1
    32   14   38 1
    33   14   39 1
    34   15   16 1
    35   15   40 1
    36   15   41 1
    37   16   17 1
    38   16   18 1
    39   18   22 1
    40   18   19 1
    41   18   42 1
    42   19   20 1
    43   19   43 1
    44   19   44 1
    45   20   21 1
    46   20   45 1
    47   20   46 1
    48   21   22 1
    49   21   47 1
    50   21   48 1
    51   22   49 1
    52   22   50 1
    53   23   24 1
    54   23   51 1
    55   23   56 1
    56   24   52 1
    57   24   53 1
    58   24   54 1
@<TRIPOS>MOLECULE
ZINC62957245
   56    58     0     0     0
SMALL
USER_CHARGES

@<TRIPOS>ATOM
      1 C1         -0.0187    1.5258    0.0104 C.3       1 <0>        -0.1600
      2 C2          0.0021   -0.0041    0.0020 C.3       1 <0>        -0.1500
      3 C3         -1.4333   -0.5336    0.0129 C.3       1 <0>        -0.0156
      4 N1         -1.4134   -2.0025    0.0048 N.4       1 <0>        -0.5156
      5 C4         -2.7915   -2.5110    0.0152 C.3       1 <0>         0.0344
      6 H1         -3.3405   -2.0839    0.8545 H         1 <0>         0.1596
      7 C5         -3.4953   -2.1574   -1.3113 C.3       1 <0>        -0.1456
      8 C6         -4.3798   -3.3926   -1.6129 C.3       1 <0>        -0.1202
      9 C7         -3.4867   -4.5725   -1.1554 C.3       1 <0>        -0.1444
     10 C8         -2.7861   -4.0464    0.1156 C.3       1 <0>        -0.1404
     11 H2         -3.3331   -4.3645    1.0031 H         1 <0>         0.1354
     12 C9         -1.3470   -4.5628    0.1731 C.3       1 <0>        -0.0332
     13 N2         -1.3565   -6.0159    0.3888 N.4       1 <0>        -0.3760
     14 C10        -1.9380   -6.3097    1.7040 C.3       1 <0>        -0.0174
     15 C11        -2.0323   -7.8256    1.8962 C.3       1 <0>        -0.1346
     16 C12        -0.6351   -8.4345    1.7927 C.3       1 <0>        -0.0750
     17 C13        -0.7223   -9.9667    1.9106 C.3       1 <0>        -0.1169
     18 C14         0.5393  -10.3557    2.7220 C.3       1 <0>        -0.1295
     19 C15         0.6558   -9.2020    3.7493 C.3       1 <0>        -0.1288
     20 C16         0.2397   -7.9450    2.9559 C.3       1 <0>        -0.1233
     21 C17         0.0048   -8.0521    0.4593 C.3       1 <0>        -0.1349
     22 C18         0.0179   -6.5272    0.3244 C.3       1 <0>        -0.0118
     23 H3          1.0039    1.9031    0.0027 H         1 <0>         0.0823
     24 H4         -0.5459    1.8868   -0.8726 H         1 <0>         0.0703
     25 H5         -0.5289    1.8773    0.9072 H         1 <0>         0.0700
     26 H6          0.5123   -0.3556   -0.8948 H         1 <0>         0.0867
     27 H7          0.5293   -0.3651    0.8851 H         1 <0>         0.0860
     28 H8         -1.9435   -0.1821    0.9097 H         1 <0>         0.1383
     29 H9         -1.9605   -0.1726   -0.8702 H         1 <0>         0.1385
     30 H10        -0.9411   -2.3279   -0.8254 H         1 <0>         0.4244
     31 H11        -4.1121   -1.2669   -1.1903 H         1 <0>         0.1116
     32 H12        -2.7624   -2.0102   -2.1045 H         1 <0>         0.0948
     33 H13        -5.3019   -3.3584   -1.0326 H         1 <0>         0.0935
     34 H14        -4.5955   -3.4622   -2.6791 H         1 <0>         0.1015
     35 H15        -4.0973   -5.4445   -0.9208 H         1 <0>         0.0990
     36 H16        -2.7524   -4.8153   -1.9235 H         1 <0>         0.0877
     37 H17        -0.8426   -4.3383   -0.7667 H         1 <0>         0.1371
     38 H18        -0.8192   -4.0771    0.9938 H         1 <0>         0.1282
     39 H19        -1.3065   -5.8835    2.4836 H         1 <0>         0.1334
     40 H20        -2.9349   -5.8733    1.7659 H         1 <0>         0.1319
     41 H21        -2.4520   -8.0426    2.8784 H         1 <0>         0.1191
     42 H22        -2.6729   -8.2512    1.1238 H         1 <0>         0.0928
     43 H23        -1.6257  -10.2576    2.4468 H         1 <0>         0.0790
     44 H24        -0.6982  -10.4276    0.9231 H         1 <0>         0.0757
     45 H25         0.3939  -11.3101    3.2281 H         1 <0>         0.0782
     46 H26         1.4178  -10.3891    2.0776 H         1 <0>         0.0712
     47 H27        -0.0226   -9.3666    4.5864 H         1 <0>         0.0729
     48 H28         1.6828   -9.1077    4.1022 H         1 <0>         0.0742
     49 H29         1.1235   -7.4365    2.5708 H         1 <0>         0.0683
     50 H30        -0.3310   -7.2714    3.5952 H         1 <0>         0.0676
     51 H31         1.0268   -8.4293    0.4246 H         1 <0>         0.1199
     52 H32        -0.5715   -8.4849   -0.3584 H         1 <0>         0.0929
     53 H33         0.4635   -6.2511   -0.6313 H         1 <0>         0.1336
     54 H34         0.6041   -6.0959    1.1359 H         1 <0>         0.1327
     55 H35        -0.9254   -2.3367    0.8222 H         1 <0>         0.4219
     56 H36        -1.9122   -6.4575   -0.3283 H         1 <0>         0.4288
@<TRIPOS>BOND
     1    1    2 1
     2    1   23 1
     3    1   24 1
     4    1   25 1
     5    2    3 1
     6    2   26 1
     7    2   27 1
     8    3    4 1
     9    3   28 1
    10    3   29 1
    11    4    5 1
    12    4   30 1
    13    4   55 1
    14    5    6 1
    15    5   10 1
    16    5    7 1
    17    7    8 1
    18    7   31 1
    19    7   32 1
    20    8    9 1
    21    8   33 1
    22    8   34 1
    23    9   10 1
    24    9   35 1
    25    9   36 1
    26   10   11 1
    27   10   12 1
    28   12   13 1
    29   12   37 1
    30   12   38 1
    31   13   22 1
    32   13   14 1
    33   13   56 1
    34   14   15 1
    35   14   39 1
    36   14   40 1
    37   15   16 1
    38   15   41 1
    39   15   42 1
    40   16   20 1
    41   16   17 1
    42   16   21 1
    43   17   18 1
    44   17   43 1
    45   17   44 1
    46   18   19 1
    47   18   45 1
    48   18   46 1
    49   19   20 1
    50   19   47 1
    51   19   48 1
    52   20   49 1
    53   20   50 1
    54   21   22 1
    55   21   51 1
    56   21   52 1
    57   22   53 1
    58   22   54 1
@<TRIPOS>MOLECULE
ZINC42033825
   42    41     0     0     0
SMALL
USER_CHARGES

@<TRIPOS>ATOM
      1 C1          0.0415    1.2709   -0.1929 C.3       1 <0>        -0.1733
      2 C2          0.0364   -0.2452    0.0132 C.3       1 <0>        -0.1147
      3 C3          0.7239   -0.9235   -1.1735 C.3       1 <0>        -0.1562
      4 C4          0.7876   -0.5872    1.3015 C.3       1 <0>        -0.0180
      5 N1          0.0566   -0.0431    2.4537 N.4       1 <0>        -0.3827
      6 C5         -1.2343   -0.7319    2.5843 C.3       1 <0>        -0.0493
      7 C6         -2.0562   -0.0691    3.6916 C.3       1 <0>         0.0535
      8 H1         -1.5107   -0.1272    4.6334 H         1 <0>         0.1477
      9 C7         -3.3972   -0.7920    3.8335 C.3       1 <0>        -0.0389
     10 N2         -4.1864   -0.1556    4.8966 N.4       1 <0>        -0.6330
     11 O1         -2.2867    1.3012    3.3583 O.3       1 <0>        -0.5474
     12 C8          0.8464   -0.2472    3.6754 C.3       1 <0>        -0.0141
     13 C9          2.1365    0.5710    3.5913 C.3       1 <0>        -0.1194
     14 C10         1.7945    2.0622    3.5749 C.3       1 <0>        -0.1695
     15 C11         3.0159    0.2628    4.8049 C.3       1 <0>        -0.1537
     16 H2          1.0700    1.6240   -0.2674 H         1 <0>         0.0783
     17 H3         -0.4937    1.5146   -1.1107 H         1 <0>         0.0882
     18 H4         -0.4483    1.7541    0.6525 H         1 <0>         0.0465
     19 H5         -0.9921   -0.5983    0.0877 H         1 <0>         0.0874
     20 H6          1.7524   -0.5704   -1.2479 H         1 <0>         0.0726
     21 H7          0.7202   -2.0036   -1.0266 H         1 <0>         0.0698
     22 H8          0.1887   -0.6798   -2.0912 H         1 <0>         0.0819
     23 H9          0.8664   -1.6700    1.3995 H         1 <0>         0.1366
     24 H10         1.7863   -0.1520    1.2662 H         1 <0>         0.1418
     25 H11        -1.7771   -0.6684    1.6413 H         1 <0>         0.1472
     26 H12        -1.0637   -1.7788    2.8356 H         1 <0>         0.1531
     27 H13        -3.9428   -0.7339    2.8917 H         1 <0>         0.1501
     28 H14        -3.2214   -1.8373    4.0877 H         1 <0>         0.1575
     29 H15        -3.6814   -0.2094    5.7685 H         1 <0>         0.4413
     30 H16        -4.3492    0.8120    4.6613 H         1 <0>         0.4429
     31 H17        -2.8331    1.4279    2.5706 H         1 <0>         0.4048
     32 H18         0.2672    0.0754    4.5406 H         1 <0>         0.1271
     33 H19         1.0925   -1.3043    3.7766 H         1 <0>         0.1358
     34 H20         2.6728    0.3112    2.6787 H         1 <0>         0.0971
     35 H21         2.7135    2.6451    3.5150 H         1 <0>         0.0888
     36 H22         1.1680    2.2818    2.7104 H         1 <0>         0.0487
     37 H23         1.2582    2.3220    4.4876 H         1 <0>         0.0726
     38 H24         3.2595   -0.7995    4.8166 H         1 <0>         0.0697
     39 H25         3.9349    0.8457    4.7450 H         1 <0>         0.0831
     40 H26         2.4796    0.5227    5.7175 H         1 <0>         0.0675
     41 H27        -0.1012    0.9439    2.3162 H         1 <0>         0.4271
     42 H28        -5.0707   -0.6323    4.9902 H         1 <0>         0.4512
@<TRIPOS>BOND
     1    1    2 1
     2    1   16 1
     3    1   17 1
     4    1   18 1
     5    2    3 1
     6    2    4 1
     7    2   19 1
     8    3   20 1
     9    3   21 1
    10    3   22 1
    11    4    5 1
    12    4   23 1
    13    4   24 1
    14    5    6 1
    15    5   12 1
    16    5   41 1
    17    6    7 1
    18    6   25 1
    19    6   26 1
    20    7    8 1
    21    7    9 1
    22    7   11 1
    23    9   10 1
    24    9   27 1
    25    9   28 1
    26   10   29 1
    27   10   30 1
    28   10   42 1
    29   11   31 1
    30   12   13 1
    31   12   32 1
    32   12   33 1
    33   13   14 1
    34   13   15 1
    35   13   34 1
    36   14   35 1
    37   14   36 1
    38   14   37 1
    39   15   38 1
    40   15   39 1
    41   15   40 1
@<TRIPOS>MOLECULE
ZINC43495616
   38    39     0     0     0
SMALL
USER_CHARGES

@<TRIPOS>ATOM
      1 C1         -0.0188    1.5357    0.0105 C.3       1 <0>        -0.1470
      2 C2          1.4678    1.9597   -0.0014 C.3       1 <0>        -0.1335
      3 C3          2.1905    0.7049    0.5496 C.3       1 <0>         0.0003
      4 H1          2.1355    0.6761    1.6379 H         1 <0>         0.1706
      5 N1          1.4211   -0.4185   -0.0440 N.4       1 <0>        -0.5310
      6 C4          0.0021   -0.0041    0.0020 C.3       1 <0>        -0.0052
      7 C5          3.6473    0.6723    0.0833 C.3       1 <0>        -0.0267
      8 N2          4.2729   -0.5834    0.5189 N.4       1 <0>        -0.3947
      9 C6          4.3249   -0.6194    1.9854 C.3       1 <0>        -0.0255
     10 C7          4.9016   -1.9597    2.4463 C.3       1 <0>        -0.1430
     11 C8          6.3149   -2.1231    1.8797 C.3       1 <0>        -0.1372
     12 C9          6.2586   -2.0097    0.3535 C.3       1 <0>        -0.1327
     13 H2          5.6542   -2.8221   -0.0498 H         1 <0>         0.1230
     14 C10         5.6317   -0.6675   -0.0299 C.3       1 <0>         0.0070
     15 C11         7.6541   -2.0933   -0.2091 C.2       1 <0>         0.5263
     16 O1          8.1030   -1.1716   -0.8570 O.2       1 <0>        -0.5298
     17 N3          8.4033   -3.1924    0.0077 N.am      1 <0>        -0.8373
     18 H3         -0.5096    1.9024    0.9120 H         1 <0>         0.1156
     19 H4         -0.5267    1.9121   -0.8775 H         1 <0>         0.1190
     20 H5          1.7979    2.1803   -1.0166 H         1 <0>         0.1123
     21 H6          1.6298    2.8165    0.6527 H         1 <0>         0.1334
     22 H7          1.7084   -0.5705   -0.9992 H         1 <0>         0.4338
     23 H8         -0.4673   -0.3868    0.9083 H         1 <0>         0.1439
     24 H9         -0.5226   -0.3777   -0.8773 H         1 <0>         0.1478
     25 H10         3.6822    0.7375   -1.0042 H         1 <0>         0.1605
     26 H11         4.1860    1.5157    0.5153 H         1 <0>         0.1804
     27 H12         4.9581    0.1913    2.3460 H         1 <0>         0.1480
     28 H13         3.3188   -0.4997    2.3872 H         1 <0>         0.1299
     29 H14         4.9410   -1.9837    3.5354 H         1 <0>         0.1289
     30 H15         4.2690   -2.7711    2.0864 H         1 <0>         0.0927
     31 H16         6.9606   -1.3414    2.2798 H         1 <0>         0.0968
     32 H17         6.7084   -3.1007    2.1582 H         1 <0>         0.1083
     33 H18         5.5903   -0.5833   -1.1159 H         1 <0>         0.1482
     34 H19         6.2369    0.1442    0.3737 H         1 <0>         0.1512
     35 H20         8.0443   -3.9297    0.5259 H         1 <0>         0.4077
     36 H21         9.3016   -3.2463   -0.3544 H         1 <0>         0.4207
     37 H22         3.7273   -1.3635    0.1845 H         1 <0>         0.4077
     38 H23         1.5562   -1.2580    0.4991 H         1 <0>         0.4294
@<TRIPOS>BOND
     1    1    6 1
     2    1    2 1
     3    1   18 1
     4    1   19 1
     5    2    3 1
     6    2   20 1
     7    2   21 1
     8    3    4 1
     9    3    5 1
    10    3    7 1
    11    5    6 1
    12    5   22 1
    13    5   38 1
    14    6   23 1
    15    6   24 1
    16    7    8 1
    17    7   25 1
    18    7   26 1
    19    8   14 1
    20    8    9 1
    21    8   37 1
    22    9   10 1
    23    9   27 1
    24    9   28 1
    25   10   11 1
    26   10   29 1
    27   10   30 1
    28   11   12 1
    29   11   31 1
    30   11   32 1
    31   12   13 1
    32   12   14 1
    33   12   15 1
    34   14   33 1
    35   14   34 1
    36   15   16 2
    37   15   17 am
    38   17   35 1
    39   17   36 1
@<TRIPOS>MOLECULE
ZINC50375570
   43    43     0     0     0
SMALL
USER_CHARGES

@<TRIPOS>ATOM
      1 C1         -0.0187    1.5258    0.0104 C.3       1 <0>        -0.1627
      2 C2          0.0021   -0.0041    0.0020 C.3       1 <0>        -0.1409
      3 C3          0.7421   -0.5109    1.2415 C.3       1 <0>        -0.1414
      4 C4          0.7628   -2.0407    1.2331 C.3       1 <0>         0.0438
      5 C5          1.5857   -2.5331    0.0409 C.3       1 <0>        -0.2033
      6 C6          1.3918   -2.5494    2.5318 C.3       1 <0>        -0.0311
      7 N1          1.4117   -4.0182    2.5237 N.4       1 <0>        -0.5089
      8 C7          2.0155   -4.5066    3.7707 C.3       1 <0>         0.0270
      9 H1          1.4969   -4.0792    4.6288 H         1 <0>         0.1570
     10 C8          3.5110   -4.1308    3.8162 C.3       1 <0>        -0.1452
     11 C9          4.1888   -5.3502    4.4891 C.3       1 <0>        -0.1241
     12 C10         3.4026   -6.5471    3.8990 C.3       1 <0>        -0.1533
     13 C11         1.9454   -6.0429    3.8239 C.3       1 <0>         0.0634
     14 H2          1.3935   -6.3610    4.7083 H         1 <0>         0.1083
     15 O1          1.3134   -6.5452    2.6448 O.3       1 <0>        -0.4163
     16 C12         0.6031   -7.7692    2.8426 C.3       1 <0>         0.0267
     17 N2         -0.6112   -2.5485    1.1228 N.4       1 <0>        -0.6471
     18 H3          1.0039    1.9031    0.0027 H         1 <0>         0.0697
     19 H4         -0.5459    1.8868   -0.8726 H         1 <0>         0.0752
     20 H5         -0.5289    1.8773    0.9072 H         1 <0>         0.0654
     21 H6         -1.0205   -0.3814    0.0098 H         1 <0>         0.0606
     22 H7          0.5123   -0.3556   -0.8948 H         1 <0>         0.0862
     23 H8          1.7647   -0.1336    1.2338 H         1 <0>         0.1278
     24 H9          0.2319   -0.1594    2.1383 H         1 <0>         0.1055
     25 H10         2.6053   -2.1563    0.1228 H         1 <0>         0.1282
     26 H11         1.6005   -3.6230    0.0349 H         1 <0>         0.0815
     27 H12         1.1377   -2.1707   -0.8843 H         1 <0>         0.1165
     28 H13         2.4113   -2.1727    2.6137 H         1 <0>         0.1802
     29 H14         0.8055   -2.1987    3.3812 H         1 <0>         0.1621
     30 H15         0.4679   -4.3670    2.4480 H         1 <0>         0.4171
     31 H16         3.8991   -3.9871    2.8078 H         1 <0>         0.0929
     32 H17         3.6606   -3.2325    4.4152 H         1 <0>         0.1080
     33 H18         5.2421   -5.4069    4.2146 H         1 <0>         0.0998
     34 H19         4.0725   -5.3078    5.5721 H         1 <0>         0.0908
     35 H20         3.7731   -6.7936    2.9040 H         1 <0>         0.0927
     36 H21         3.4730   -7.4121    4.5584 H         1 <0>         0.0960
     37 H22         0.1524   -8.0840    1.9014 H         1 <0>         0.1045
     38 H23         1.2935   -8.5379    3.1898 H         1 <0>         0.0651
     39 H24        -0.1785   -7.6195    3.5875 H         1 <0>         0.0578
     40 H25        -1.0260   -2.2130    0.2664 H         1 <0>         0.4556
     41 H26        -0.5975   -3.5574    1.1173 H         1 <0>         0.4242
     42 H27         1.9544   -4.3429    1.7375 H         1 <0>         0.4393
     43 H28        -1.1539   -2.2238    1.9090 H         1 <0>         0.4452
@<TRIPOS>BOND
     1    1    2 1
     2    1   18 1
     3    1   19 1
     4    1   20 1
     5    2    3 1
     6    2   21 1
     7    2   22 1
     8    3    4 1
     9    3   23 1
    10    3   24 1
    11    4    5 1
    12    4    6 1
    13    4   17 1
    14    5   25 1
    15    5   26 1
    16    5   27 1
    17    6    7 1
    18    6   28 1
    19    6   29 1
    20    7    8 1
    21    7   30 1
    22    7   42 1
    23    8    9 1
    24    8   13 1
    25    8   10 1
    26   10   11 1
    27   10   31 1
    28   10   32 1
    29   11   12 1
    30   11   33 1
    31   11   34 1
    32   12   13 1
    33   12   35 1
    34   12   36 1
    35   13   14 1
    36   13   15 1
    37   15   16 1
    38   16   37 1
    39   16   38 1
    40   16   39 1
    41   17   40 1
    42   17   41 1
    43   17   43 1
@<TRIPOS>MOLECULE
ZINC53881259
   50    51     0     0     0
SMALL
USER_CHARGES

@<TRIPOS>ATOM
      1 C1         -0.0188    1.5382    0.0105 C.3       1 <0>        -0.1278
      2 C2          1.4013    2.0356   -0.0004 C.3       1 <0>        -0.1287
      3 C3          1.9371    2.3201    1.4158 C.3       1 <0>        -0.1291
      4 C4          1.5270    1.2423    2.4375 C.3       1 <0>        -0.1381
      5 H1          0.4964    1.4210    2.7441 H         1 <0>         0.1257
      6 C5          1.6342   -0.1509    1.8790 C.3       1 <0>         0.0349
      7 H2          2.3733   -0.1685    1.0781 H         1 <0>         0.1612
      8 C6          0.2562   -0.5627    1.3217 C.3       1 <0>        -0.1274
      9 C7          0.0021   -0.0041    0.0020 C.3       1 <0>        -0.1364
     10 N1          2.0379   -1.0794    2.9434 N.4       1 <0>        -0.6451
     11 C8          2.4341    1.3527    3.6646 C.3       1 <0>        -0.0388
     12 N2          2.1999    2.6400    4.3324 N.4       1 <0>        -0.3868
     13 C9          0.8277    2.6733    4.8815 C.3       1 <0>        -0.0221
     14 C10         0.9836    2.2456    6.3622 C.3       1 <0>        -0.1412
     15 C11         2.3288    2.9183    6.7427 C.3       1 <0>        -0.1394
     16 C12         3.1546    2.8032    5.4441 C.3       1 <0>         0.0257
     17 H3          3.8122    1.9356    5.4985 H         1 <0>         0.1416
     18 C13         3.9808    4.0744    5.2383 C.3       1 <0>        -0.1470
     19 C14         4.8472    3.9224    3.9865 C.3       1 <0>        -0.1336
     20 C15         5.6735    5.1936    3.7807 C.3       1 <0>         0.0706
     21 O1          6.4827    5.0516    2.6115 O.3       1 <0>        -0.5776
     22 H4         -0.5241    1.8926    0.9090 H         1 <0>         0.0674
     23 H5         -0.5411    1.9022   -0.8743 H         1 <0>         0.0865
     24 H6          2.0344    1.2845   -0.4728 H         1 <0>         0.0748
     25 H7          1.4490    2.9534   -0.5864 H         1 <0>         0.0869
     26 H8          3.0252    2.3710    1.3763 H         1 <0>         0.0874
     27 H9          1.5541    3.2845    1.7494 H         1 <0>         0.0814
     28 H10         0.2112   -1.6500    1.2594 H         1 <0>         0.0966
     29 H11        -0.5188   -0.2178    2.0062 H         1 <0>         0.0918
     30 H12        -0.9609   -0.3682   -0.3559 H         1 <0>         0.0937
     31 H13         0.7813   -0.3428   -0.6807 H         1 <0>         0.0795
     32 H14         1.3491   -1.0661    3.6805 H         1 <0>         0.4337
     33 H15         2.1091   -2.0127    2.5664 H         1 <0>         0.4501
     34 H16         2.2116    0.5393    4.3553 H         1 <0>         0.1199
     35 H17         3.4766    1.2895    3.3526 H         1 <0>         0.1474
     36 H18         0.4182    3.6815    4.8189 H         1 <0>         0.1441
     37 H19         0.1885    1.9694    4.3485 H         1 <0>         0.1331
     38 H20         0.1666    2.6354    6.9693 H         1 <0>         0.1259
     39 H21         1.0506    1.1612    6.4504 H         1 <0>         0.0945
     40 H22         2.1748    3.9637    7.0101 H         1 <0>         0.1092
     41 H23         2.8130    2.3785    7.5564 H         1 <0>         0.1200
     42 H24         3.3122    4.9265    5.1162 H         1 <0>         0.0960
     43 H25         4.6208    4.2361    6.1057 H         1 <0>         0.1238
     44 H26         5.5159    3.0703    4.1086 H         1 <0>         0.0848
     45 H27         4.2072    3.7607    3.1191 H         1 <0>         0.0595
     46 H28         5.0049    6.0457    3.6586 H         1 <0>         0.0526
     47 H29         6.3135    5.3553    4.6480 H         1 <0>         0.0580
     48 H30         7.0346    5.8221    2.4192 H         1 <0>         0.3985
     49 H31         2.9329   -0.7974    3.3142 H         1 <0>         0.4323
     50 H32         2.3172    3.3928    3.6708 H         1 <0>         0.4298
@<TRIPOS>BOND
     1    1    9 1
     2    1    2 1
     3    1   22 1
     4    1   23 1
     5    2    3 1
     6    2   24 1
     7    2   25 1
     8    3    4 1
     9    3   26 1
    10    3   27 1
    11    4    5 1
    12    4    6 1
    13    4   11 1
    14    6    7 1
    15    6    8 1
    16    6   10 1
    17    8    9 1
    18    8   28 1
    19    8   29 1
    20    9   30 1
    21    9   31 1
    22   10   32 1
    23   10   33 1
    24   10   49 1
    25   11   12 1
    26   11   34 1
    27   11   35 1
    28   12   16 1
    29   12   13 1
    30   12   50 1
    31   13   14 1
    32   13   36 1
    33   13   37 1
    34   14   15 1
    35   14   38 1
    36   14   39 1
    37   15   16 1
    38   15   40 1
    39   15   41 1
    40   16   17 1
    41   16   18 1
    42   18   19 1
    43   18   42 1
    44   18   43 1
    45   19   20 1
    46   19   44 1
    47   19   45 1
    48   20   21 1
    49   20   46 1
    50   20   47 1
    51   21   48 1
