@<TRIPOS>MOLECULE
1QW6-3AR
 36 35 0 0 0
SMALL
SF_CHARGES


@<TRIPOS>ATOM
1    N         3.9250   -0.2500   56.6770  N.4        1 SUBUNIT     -0.4263
2    C         4.1020   -0.7510   58.0150  C.3        1 SUBUNIT      0.1898
3    C         4.5830   -2.1850   57.9480  C.2        1 SUBUNIT      0.7846
4    O         4.2070   -3.0080   56.9310  O.co2      1 SUBUNIT     -0.8348
5    C         2.7890   -0.6740   58.8270  C.3        1 SUBUNIT     -0.0523
6    C         2.1370    0.7160   59.0340  C.3        1 SUBUNIT     -0.0510
7    C         1.1140    1.1470   57.9580  C.3        1 SUBUNIT      0.1702
8    N        -0.0150    0.2090   57.8300  N.pl3      1 SUBUNIT     -0.5596
9    C        -0.9590   -0.0300   58.7860  C.cat      1 SUBUNIT      0.5037
10   N        -0.8790    0.5820   59.9880  N.pl3      1 SUBUNIT     -0.5621
11   N        -1.9250   -0.8610   58.5400  N.pl3      1 SUBUNIT     -0.6354
12   C        -1.9230    1.4360   60.4930  C.3        1 SUBUNIT      0.1658
13   C        -1.7760    1.6360   62.0050  C.3        1 SUBUNIT     -0.0541
14   C        -0.4370    2.2720   62.3910  C.3        1 SUBUNIT     -0.0825
15   O         5.3690   -2.6930   58.9330  O.co2      1 SUBUNIT     -0.8348
16   H         4.7913   -0.2798   56.1626  H          1 SUBUNIT      0.3316
17   H         3.6043    0.7055   56.6885  H          1 SUBUNIT      0.3316
18   H         3.2462   -0.7986   56.1727  H          1 SUBUNIT      0.3316
19   H         4.8567   -0.1135   58.4874  H          1 SUBUNIT      0.0540
20   H         2.0544   -1.3049   58.3157  H          1 SUBUNIT      0.0742
21   H         2.9973   -1.0866   59.8197  H          1 SUBUNIT      0.0742
22   H         1.6225    0.7055   60.0005  H          1 SUBUNIT      0.0762
23   H         2.9372    1.4632   59.0540  H          1 SUBUNIT      0.0762
24   H         0.7082    2.1298   58.2196  H          1 SUBUNIT      0.0626
25   H         1.6158    1.2056   56.9865  H          1 SUBUNIT      0.0626
26   H        -0.1330   -0.3186   56.9792  H          1 SUBUNIT      0.3545
27   H        -0.0447    0.4150   60.5284  H          1 SUBUNIT      0.3549
28   H        -2.6254   -1.0418   59.2420  H          1 SUBUNIT      0.2933
29   H        -1.8570    2.4016   59.9809  H          1 SUBUNIT      0.0629
30   H        -2.8884    0.9695   60.2706  H          1 SUBUNIT      0.0629
31   H        -2.5854    2.2866   62.3523  H          1 SUBUNIT      0.0773
32   H        -1.8546    0.6606   62.4964  H          1 SUBUNIT      0.0773
33   H         0.4020    1.6467   62.0683  H          1 SUBUNIT      0.0759
34   H        -0.3624    2.4016   63.4757  H          1 SUBUNIT      0.0759
35   H        -0.3215    3.2565   61.9257  H          1 SUBUNIT      0.0759
36   H        -2.0716   -1.3778   57.6870  H          1 SUBUNIT      0.2933
@<TRIPOS>BOND
     1    1    2 1
     2    2    3 1
     3    2    5 1
     4    3    4 2
     5    3   15 1
     6    5    6 1
     7    6    7 1
     8    7    8 1
     9    8    9 1
    10    9   10 1
    11    9   11 2
    12   10   12 1
    13   12   13 1
    14   13   14 1
    15    1   16 1
    16    1   17 1
    17    1   18 1
    18    2   19 1
    19    5   20 1
    20    5   21 1
    21    6   22 1
    22    6   23 1
    23    7   24 1
    24    7   25 1
    25    8   26 1
    26   10   27 1
    27   11   28 1
    28   12   29 1
    29   12   30 1
    30   13   31 1
    31   13   32 1
    32   14   33 1
    33   14   34 1
    34   14   35 1
    35   11   36 1
