@<TRIPOS>MOLECULE
CHEMBL519112
   42    44     0     0     0
SMALL
USER_CHARGES

@<TRIPOS>ATOM
      1 C1          2.0161   -0.8808    2.2997 C.3       1 <0>         0.0811
      2 N1          1.5626   -1.1766    0.9385 N.pl3     1 <0>        -0.4136
      3 C2          0.9437   -2.3176    0.5409 C.2       1 <0>        -0.0841
      4 C3          0.6736   -2.2300   -0.7896 C.2       1 <0>         0.0976
      5 C4          1.1406   -0.9894   -1.2404 C.2       1 <0>        -0.1988
      6 C5          1.6882   -0.3406   -0.1493 C.2       1 <0>         0.0105
      7 C6          2.2752    0.9507   -0.1501 C.2       1 <0>         0.5403
      8 O1          2.7302    1.4174    0.8871 O.co2     1 <0>        -0.6966
      9 O2          2.3271    1.5992   -1.1881 O.co2     1 <0>        -0.6791
     10 N2          0.0391   -3.2113   -1.5730 N.pl3     1 <0>        -0.5891
     11 C7         -0.5014   -4.4170   -0.9403 C.3       1 <0>         0.1801
     12 C8         -1.9328   -4.1739   -0.5366 C.ar      1 <0>        -0.1048
     13 C9         -2.2205   -3.6617    0.7147 C.ar      1 <0>        -0.0950
     14 C10        -3.5335   -3.4386    1.0850 C.ar      1 <0>        -0.1215
     15 C11        -4.5588   -3.7273    0.2039 C.ar      1 <0>        -0.1197
     16 C12        -4.2710   -4.2387   -1.0477 C.ar      1 <0>        -0.1242
     17 C13        -2.9577   -4.4577   -1.4197 C.ar      1 <0>        -0.1068
     18 C14        -0.0755   -3.0361   -2.9537 C.ar      1 <0>         0.2400
     19 C15         0.8833   -3.5707   -3.8054 C.ar      1 <0>        -0.1209
     20 C16         0.7666   -3.3958   -5.1703 C.ar      1 <0>        -0.0478
     21 C17        -0.3030   -2.6896   -5.6896 C.ar      1 <0>        -0.0582
     22 C18        -1.2590   -2.1557   -4.8447 C.ar      1 <0>        -0.0470
     23 C19        -1.1516   -2.3316   -3.4792 C.ar      1 <0>        -0.1156
     24 N3         -0.4248   -2.5042   -7.1531 N.pl3     1 <0>         0.0390
     25 O3          0.4103   -2.9700   -7.8930 O.2       1 <0>        -0.1662
     26 O4         -1.3593   -1.8871   -7.6086 O.3       1 <0>        -0.1654
     27 H1          1.2138   -0.3912    2.8517 H         1 <0>         0.0622
     28 H2          2.2885   -1.8092    2.8017 H         1 <0>         0.0631
     29 H3          2.8835   -0.2219    2.2587 H         1 <0>         0.1091
     30 H4          0.7051   -3.1575    1.1766 H         1 <0>         0.1480
     31 H5          1.0809   -0.6094   -2.2496 H         1 <0>         0.1294
     32 H6         -0.4587   -5.2475   -1.6451 H         1 <0>         0.0768
     33 H7          0.0891   -4.6596   -0.0568 H         1 <0>         0.0848
     34 H8         -1.4195   -3.4361    1.4031 H         1 <0>         0.1216
     35 H9         -3.7583   -3.0391    2.0629 H         1 <0>         0.1197
     36 H10        -5.5846   -3.5537    0.4935 H         1 <0>         0.1183
     37 H11        -5.0720   -4.4646   -1.7360 H         1 <0>         0.1187
     38 H12        -2.7327   -4.8537   -2.3989 H         1 <0>         0.1159
     39 H13         1.7191   -4.1220   -3.4006 H         1 <0>         0.1478
     40 H14         1.5117   -3.8108   -5.8329 H         1 <0>         0.1526
     41 H15        -2.0928   -1.6044   -5.2536 H         1 <0>         0.1520
     42 H16        -1.9010   -1.9185   -2.8204 H         1 <0>         0.1458
@<TRIPOS>BOND
     1    1    2 1
     2    1   27 1
     3    1   28 1
     4    1   29 1
     5    2    6 1
     6    2    3 1
     7    3    4 2
     8    3   30 1
     9    4    5 1
    10    4   10 1
    11    5    6 2
    12    5   31 1
    13    6    7 1
    14    7    8 2
    15    7    9 1
    16   10   11 1
    17   10   18 1
    18   11   12 1
    19   11   32 1
    20   11   33 1
    21   12   17 ar
    22   12   13 ar
    23   13   14 ar
    24   13   34 1
    25   14   15 ar
    26   14   35 1
    27   15   16 ar
    28   15   36 1
    29   16   17 ar
    30   16   37 1
    31   17   38 1
    32   18   23 ar
    33   18   19 ar
    34   19   20 ar
    35   19   39 1
    36   20   21 ar
    37   20   40 1
    38   21   22 ar
    39   21   24 1
    40   22   23 ar
    41   22   41 1
    42   23   42 1
    43   24   25 2
    44   24   26 1
@<TRIPOS>MOLECULE
CHEMBL1209236
   38    39     0     0     0
SMALL
USER_CHARGES

@<TRIPOS>ATOM
      1 C1         -1.4864    1.3856   -0.0801 C.3       1 <0>        -0.1351
      2 C2         -1.3540   -0.1227    0.1395 C.3       1 <0>        -0.1095
      3 C3         -0.3866   -0.3869    1.2950 C.3       1 <0>        -0.1506
      4 C4         -2.7252   -0.7112    0.4776 C.3       1 <0>        -0.1512
      5 C5         -0.8258   -0.7686   -1.1155 C.2       1 <0>         0.4039
      6 O1         -0.5279   -0.0834   -2.0710 O.2       1 <0>        -0.4452
      7 C6         -0.6716   -2.2281   -1.1816 C.ar      1 <0>        -0.1648
      8 C7         -0.9383   -3.0129   -0.0524 C.ar      1 <0>        -0.0767
      9 C8         -0.7947   -4.3691   -0.1150 C.ar      1 <0>        -0.1438
     10 C9         -0.3810   -4.9748   -1.3058 C.ar      1 <0>         0.0124
     11 C10        -0.1140   -4.1922   -2.4338 C.ar      1 <0>        -0.1075
     12 C11        -0.2634   -2.8364   -2.3755 C.ar      1 <0>        -0.0534
     13 C12        -0.2257   -6.4407   -1.3720 C.2       1 <0>         0.0788
     14 C13        -0.2000   -7.1990   -2.5234 C.2       1 <0>        -0.1677
     15 C14        -0.0366   -8.5313   -2.1471 C.2       1 <0>        -0.1106
     16 C15         0.0352   -8.5671   -0.7685 C.2       1 <0>         0.0627
     17 N1         -0.0766   -7.2795   -0.3025 N.pl3     1 <0>        -0.4127
     18 C16        -0.0444   -6.8735    1.1047 C.3       1 <0>         0.0544
     19 C17         0.2024   -9.7407    0.0349 C.1       1 <0>         0.2753
     20 N2          0.3350  -10.6717    0.6722 N.1       1 <0>        -0.4000
     21 H1         -0.5095    1.8049   -0.3210 H         1 <0>         0.0621
     22 H2         -2.1756    1.5739   -0.9033 H         1 <0>         0.0611
     23 H3         -1.8684    1.8528    0.8276 H         1 <0>         0.0638
     24 H4         -0.8187   -0.0131    2.2233 H         1 <0>         0.0715
     25 H5         -0.2093   -1.4588    1.3826 H         1 <0>         0.0690
     26 H6          0.5573    0.1230    1.1024 H         1 <0>         0.0628
     27 H7         -3.4176   -0.5125   -0.3404 H         1 <0>         0.0619
     28 H8         -2.6330   -1.7876    0.6223 H         1 <0>         0.0705
     29 H9         -3.1019   -0.2527    1.3919 H         1 <0>         0.0705
     30 H10        -1.2571   -2.5453    0.8675 H         1 <0>         0.1498
     31 H11        -1.0003   -4.9744    0.7555 H         1 <0>         0.1335
     32 H12         0.2057   -4.6610   -3.3527 H         1 <0>         0.1388
     33 H13        -0.0621   -2.2327   -3.2481 H         1 <0>         0.1395
     34 H14        -0.2904   -6.8281   -3.5336 H         1 <0>         0.1551
     35 H15         0.0226   -9.3803   -2.8121 H         1 <0>         0.1559
     36 H16        -1.0638   -6.7567    1.4726 H         1 <0>         0.0875
     37 H17         0.4684   -7.6359    1.6912 H         1 <0>         0.0892
     38 H18         0.4861   -5.9259    1.1974 H         1 <0>         0.0989
@<TRIPOS>BOND
     1    1    2 1
     2    1   21 1
     3    1   22 1
     4    1   23 1
     5    2    3 1
     6    2    4 1
     7    2    5 1
     8    3   24 1
     9    3   25 1
    10    3   26 1
    11    4   27 1
    12    4   28 1
    13    4   29 1
    14    5    6 2
    15    5    7 1
    16    7   12 ar
    17    7    8 ar
    18    8    9 ar
    19    8   30 1
    20    9   10 ar
    21    9   31 1
    22   10   11 ar
    23   10   13 1
    24   11   12 ar
    25   11   32 1
    26   12   33 1
    27   13   17 1
    28   13   14 2
    29   14   15 1
    30   14   34 1
    31   15   16 2
    32   15   35 1
    33   16   17 1
    34   16   19 1
    35   17   18 1
    36   18   36 1
    37   18   37 1
    38   18   38 1
    39   19   20 3
@<TRIPOS>MOLECULE
CHEMBL1393
   61    65     0     0     0
SMALL
USER_CHARGES

@<TRIPOS>ATOM
      1 C1         -0.0184    1.5028    0.0103 C.3       1 <0>        -0.1834
      2 C2          0.0021   -0.0041    0.0020 C.2       1 <0>         0.2952
      3 O1          1.0609   -0.5963   -0.0113 O.2       1 <0>        -0.4628
      4 S1         -1.4241   -0.8535    0.0111 S.3       1 <0>        -0.0865
      5 C3         -0.9005   -2.5903   -0.0033 C.3       1 <0>        -0.0601
      6 H1         -0.2231   -2.7735    0.8309 H         1 <0>         0.1085
      7 C4         -0.1848   -2.8979   -1.3203 C.3       1 <0>        -0.0972
      8 C5         -1.1754   -2.7526   -2.4610 C.2       1 <0>        -0.0183
      9 C6         -0.8008   -2.0328   -3.5185 C.2       1 <0>        -0.2315
     10 C7         -1.7119   -1.8719   -4.6568 C.2       1 <0>         0.3896
     11 O2         -1.5963   -0.9548   -5.4427 O.2       1 <0>        -0.4548
     12 C8         -2.8054   -2.9124   -4.7998 C.3       1 <0>        -0.1675
     13 C9         -3.4907   -3.0448   -3.4405 C.3       1 <0>        -0.1034
     14 C10        -2.5067   -3.4292   -2.3500 C.3       1 <0>        -0.0255
     15 C11        -3.1324   -3.1361   -0.9805 C.3       1 <0>        -0.0732
     16 H2         -3.3553   -2.0713   -0.9129 H         1 <0>         0.0859
     17 C12        -2.1284   -3.4962    0.1260 C.3       1 <0>        -0.0598
     18 H3         -1.8316   -4.5409    0.0333 H         1 <0>         0.1084
     19 C13        -2.8065   -3.2536    1.4620 C.3       1 <0>        -0.0867
     20 H4         -3.1622   -2.2252    1.5250 H         1 <0>         0.0929
     21 C14        -1.9786   -3.6091    2.7028 C.3       1 <0>        -0.1134
     22 C15        -3.0641   -3.8464    3.7912 C.3       1 <0>        -0.1439
     23 C16        -4.3520   -4.2185    3.0328 C.3       1 <0>         0.1193
     24 C17        -3.9981   -4.2470    1.5548 C.3       1 <0>        -0.0467
     25 C18        -5.0436   -3.7809    0.5608 C.3       1 <0>        -0.1049
     26 C19        -4.4313   -3.9253   -0.8461 C.3       1 <0>        -0.1212
     27 C20        -3.5271   -5.6532    1.1784 C.3       1 <0>        -0.1475
     28 C21        -5.4589   -3.1890    3.3175 C.3       1 <0>        -0.1503
     29 C22        -6.2810   -3.8924    4.4267 C.3       1 <0>        -0.1865
     30 C23        -5.5352   -5.1989    4.6547 C.2       1 <0>         0.4823
     31 O3         -5.5324   -5.8644    5.6632 O.2       1 <0>        -0.4395
     32 O4         -4.8739   -5.4684    3.5007 O.3       1 <0>        -0.3359
     33 C24        -2.2779   -4.9398   -2.4307 C.3       1 <0>        -0.1534
     34 H5          1.0042    1.8801    0.0026 H         1 <0>         0.0923
     35 H6         -0.5455    1.8639   -0.8728 H         1 <0>         0.0982
     36 H7         -0.5286    1.8543    0.9071 H         1 <0>         0.0977
     37 H8          0.6390   -2.1980   -1.4605 H         1 <0>         0.0924
     38 H9          0.1995   -3.9176   -1.2978 H         1 <0>         0.0984
     39 H10         0.1736   -1.5675   -3.5370 H         1 <0>         0.1313
     40 H11        -3.5282   -2.5897   -5.5493 H         1 <0>         0.0938
     41 H12        -2.3710   -3.8689   -5.0905 H         1 <0>         0.1002
     42 H13        -3.9536   -2.0925   -3.1816 H         1 <0>         0.0719
     43 H14        -4.2653   -3.8089   -3.5059 H         1 <0>         0.0853
     44 H15        -1.3988   -4.5162    2.5325 H         1 <0>         0.0749
     45 H16        -1.3274   -2.7808    2.9820 H         1 <0>         0.0735
     46 H17        -2.7654   -4.6639    4.4474 H         1 <0>         0.0789
     47 H18        -3.2196   -2.9365    4.3710 H         1 <0>         0.0819
     48 H19        -5.9363   -4.4010    0.6426 H         1 <0>         0.0727
     49 H20        -5.2965   -2.7376    0.7498 H         1 <0>         0.0726
     50 H21        -5.1455   -3.5623   -1.5851 H         1 <0>         0.0725
     51 H22        -4.2282   -4.9789   -1.0382 H         1 <0>         0.0787
     52 H23        -2.7398   -5.9681    1.8633 H         1 <0>         0.0589
     53 H24        -4.3652   -6.3470    1.2446 H         1 <0>         0.0640
     54 H25        -3.1408   -5.6463    0.1592 H         1 <0>         0.0689
     55 H26        -5.0346   -2.2537    3.6826 H         1 <0>         0.0947
     56 H27        -6.0691   -3.0196    2.4303 H         1 <0>         0.0996
     57 H28        -6.2891   -3.2921    5.3365 H         1 <0>         0.1070
     58 H29        -7.2978   -4.0862    4.0853 H         1 <0>         0.1151
     59 H30        -1.6274   -5.2529   -1.6141 H         1 <0>         0.0630
     60 H31        -3.2342   -5.4569   -2.3522 H         1 <0>         0.0727
     61 H32        -1.8090   -5.1859   -3.3835 H         1 <0>         0.0606
@<TRIPOS>BOND
     1    1    2 1
     2    1   34 1
     3    1   35 1
     4    1   36 1
     5    2    3 2
     6    2    4 1
     7    4    5 1
     8    5    6 1
     9    5   17 1
    10    5    7 1
    11    7    8 1
    12    7   37 1
    13    7   38 1
    14    8   14 1
    15    8    9 2
    16    9   10 1
    17    9   39 1
    18   10   11 2
    19   10   12 1
    20   12   13 1
    21   12   40 1
    22   12   41 1
    23   13   14 1
    24   13   42 1
    25   13   43 1
    26   14   15 1
    27   14   33 1
    28   15   16 1
    29   15   26 1
    30   15   17 1
    31   17   18 1
    32   17   19 1
    33   19   20 1
    34   19   24 1
    35   19   21 1
    36   21   22 1
    37   21   44 1
    38   21   45 1
    39   22   23 1
    40   22   46 1
    41   22   47 1
    42   23   32 1
    43   23   24 1
    44   23   28 1
    45   24   25 1
    46   24   27 1
    47   25   26 1
    48   25   48 1
    49   25   49 1
    50   26   50 1
    51   26   51 1
    52   27   52 1
    53   27   53 1
    54   27   54 1
    55   28   29 1
    56   28   55 1
    57   28   56 1
    58   29   30 1
    59   29   57 1
    60   29   58 1
    61   30   31 2
    62   30   32 1
    63   33   59 1
    64   33   60 1
    65   33   61 1
@<TRIPOS>MOLECULE
CHEMBL376847
   42    44     0     0     0
SMALL
USER_CHARGES

@<TRIPOS>ATOM
      1 C1         -0.0187    1.5258    0.0104 C.3       1 <0>        -0.1754
      2 C2          0.0021   -0.0041    0.0020 C.3       1 <0>         0.2150
      3 C3          0.7421   -0.5109    1.2415 C.3       1 <0>        -0.6479
      4 S1         -0.0183    0.1940    2.7300 S.o2      1 <0>         2.5127
      5 O1          0.2107    1.5955    2.7797 O.2       1 <0>        -0.9243
      6 O2         -1.3257   -0.3332    2.9083 O.2       1 <0>        -0.9151
      7 C4          0.9178   -0.4623    4.0708 C.ar      1 <0>        -0.6818
      8 C5          0.5430   -1.6579    4.6550 C.ar      1 <0>         0.0062
      9 C6          1.2766   -2.1738    5.7064 C.ar      1 <0>        -0.1739
     10 C7          2.3876   -1.4928    6.1746 C.ar      1 <0>         0.1594
     11 C8          2.7621   -0.2955    5.5887 C.ar      1 <0>        -0.1737
     12 C9          2.0299    0.2158    4.5340 C.ar      1 <0>         0.0067
     13 F1          3.1053   -1.9960    7.2026 F         1 <0>        -0.1261
     14 C10         0.7074   -0.4901   -1.2379 C.2       1 <0>         0.0734
     15 C11         2.0243   -0.7341   -1.3297 C.2       1 <0>        -0.1812
     16 C12         2.2819   -1.1851   -2.6994 C.ar      1 <0>        -0.0730
     17 C13         3.4286   -1.5802   -3.3913 C.ar      1 <0>        -0.0554
     18 C14         3.3343   -1.9559   -4.7024 C.ar      1 <0>        -0.0241
     19 C15         2.1061   -1.9476   -5.3517 C.ar      1 <0>        -0.1573
     20 C16         0.9630   -1.5613   -4.6873 C.ar      1 <0>        -0.0563
     21 C17         1.0362   -1.1752   -3.3527 C.ar      1 <0>         0.0977
     22 N1          0.0996   -0.7536   -2.4350 N.pl3     1 <0>        -0.5707
     23 H1         -0.8491   -0.6557   -2.6119 H         1 <0>         0.4260
     24 C18         2.0237   -2.3649   -6.7974 C.3       1 <0>         0.5122
     25 F2          0.6972   -2.2768   -7.2333 F         1 <0>        -0.1760
     26 F3          2.8263   -1.5212   -7.5728 F         1 <0>        -0.1679
     27 F4          2.4709   -3.6840   -6.9283 F         1 <0>        -0.1681
     28 Cl1         4.7601   -2.4465   -5.5627 Cl        1 <0>        -0.0450
     29 O3         -1.3386   -0.4987    0.0122 O.3       1 <0>        -0.5420
     30 H2          1.0039    1.9031    0.0027 H         1 <0>         0.0955
     31 H3         -0.5459    1.8868   -0.8726 H         1 <0>         0.0840
     32 H4         -0.5289    1.8773    0.9072 H         1 <0>         0.0913
     33 H5          0.6803   -1.5984    1.2822 H         1 <0>         0.1479
     34 H6          1.7879   -0.2080    1.1895 H         1 <0>         0.1550
     35 H7         -0.3238   -2.1887    4.2898 H         1 <0>         0.1535
     36 H8          0.9834   -3.1077    6.1628 H         1 <0>         0.1494
     37 H9          3.6282    0.2367    5.9533 H         1 <0>         0.1497
     38 H10         2.3244    1.1475    4.0740 H         1 <0>         0.1549
     39 H11         2.7553   -0.6193   -0.5430 H         1 <0>         0.1580
     40 H12         4.3866   -1.5887   -2.8926 H         1 <0>         0.1477
     41 H13         0.0130   -1.5579   -5.2008 H         1 <0>         0.1488
     42 H14        -1.4018   -1.4636    0.0076 H         1 <0>         0.3903
@<TRIPOS>BOND
     1    1    2 1
     2    1   30 1
     3    1   31 1
     4    1   32 1
     5    2    3 1
     6    2   14 1
     7    2   29 1
     8    3    4 1
     9    3   33 1
    10    3   34 1
    11    4    5 2
    12    4    6 2
    13    4    7 1
    14    7   12 ar
    15    7    8 ar
    16    8    9 ar
    17    8   35 1
    18    9   10 ar
    19    9   36 1
    20   10   11 ar
    21   10   13 1
    22   11   12 ar
    23   11   37 1
    24   12   38 1
    25   14   22 1
    26   14   15 2
    27   15   16 1
    28   15   39 1
    29   16   21 ar
    30   16   17 ar
    31   17   18 ar
    32   17   40 1
    33   18   19 ar
    34   18   28 1
    35   19   20 ar
    36   19   24 1
    37   20   21 ar
    38   20   41 1
    39   21   22 1
    40   22   23 1
    41   24   25 1
    42   24   26 1
    43   24   27 1
    44   29   42 1
@<TRIPOS>MOLECULE
CHEMBL376847__1
   42    44     0     0     0
SMALL
USER_CHARGES

@<TRIPOS>ATOM
      1 C1         -0.0187    1.5258    0.0104 C.3       1 <0>        -0.1754
      2 C2          0.0021   -0.0041    0.0020 C.3       1 <0>         0.2151
      3 C3          0.7421   -0.5109    1.2415 C.3       1 <0>        -0.6479
      4 S1          2.3946    0.2345    1.3062 S.o2      1 <0>         2.5125
      5 O1          3.1954   -0.2572    0.2403 O.2       1 <0>        -0.9151
      6 O2          2.2925    1.6305    1.5512 O.2       1 <0>        -0.9242
      7 C4          3.1322   -0.4251    2.7641 C.ar      1 <0>        -0.6818
      8 C5          2.9786    0.2288    3.9724 C.ar      1 <0>         0.0066
      9 C6          3.5563   -0.2878    5.1166 C.ar      1 <0>        -0.1737
     10 C7          4.2891   -1.4609    5.0525 C.ar      1 <0>         0.1594
     11 C8          4.4422   -2.1149    3.8417 C.ar      1 <0>        -0.1739
     12 C9          3.8592   -1.5992    2.6998 C.ar      1 <0>         0.0063
     13 F1          4.8546   -1.9666    6.1703 F         1 <0>        -0.1261
     14 C10        -1.4117   -0.5257    0.0127 C.2       1 <0>         0.0733
     15 C11        -2.1262   -0.7929    1.1173 C.2       1 <0>        -0.1812
     16 C12        -3.4365   -1.2748    0.6738 C.ar      1 <0>        -0.0731
     17 C13        -4.5886   -1.7020    1.3372 C.ar      1 <0>        -0.0554
     18 C14        -5.6785   -2.1018    0.6151 C.ar      1 <0>        -0.0241
     19 C15        -5.6485   -2.0862   -0.7738 C.ar      1 <0>        -0.1572
     20 C16        -4.5220   -1.6684   -1.4473 C.ar      1 <0>        -0.0563
     21 C17        -3.4016   -1.2574   -0.7322 C.ar      1 <0>         0.0977
     22 N1         -2.1593   -0.7915   -1.1020 N.pl3     1 <0>        -0.5708
     23 H1         -1.8584   -0.6721   -2.0163 H         1 <0>         0.4260
     24 C18        -6.8604   -2.5314   -1.5512 C.3       1 <0>         0.5122
     25 F2         -6.5983   -2.4301   -2.9217 F         1 <0>        -0.1760
     26 F3         -7.1581   -3.8601   -1.2303 F         1 <0>        -0.1681
     27 F4         -7.9497   -1.7171   -1.2233 F         1 <0>        -0.1679
     28 Cl1        -7.1106   -2.6334    1.4399 Cl        1 <0>        -0.0451
     29 O3          0.6709   -0.4649   -1.1737 O.3       1 <0>        -0.5420
     30 H2          1.0039    1.9031    0.0027 H         1 <0>         0.0913
     31 H3         -0.5459    1.8868   -0.8726 H         1 <0>         0.0840
     32 H4         -0.5289    1.8773    0.9072 H         1 <0>         0.0955
     33 H5          0.1838   -0.2350    2.1361 H         1 <0>         0.1549
     34 H6          0.8346   -1.5958    1.1912 H         1 <0>         0.1479
     35 H7          2.4073    1.1440    4.0221 H         1 <0>         0.1548
     36 H8          3.4365    0.2234    6.0604 H         1 <0>         0.1497
     37 H9          5.0138   -3.0298    3.7905 H         1 <0>         0.1494
     38 H10         3.9747   -2.1116    1.7561 H         1 <0>         0.1536
     39 H11        -1.7972   -0.6752    2.1392 H         1 <0>         0.1579
     40 H12        -4.6185   -1.7169    2.4167 H         1 <0>         0.1477
     41 H13        -4.5083   -1.6603   -2.5272 H         1 <0>         0.1488
     42 H14         0.7216   -1.4279   -1.2455 H         1 <0>         0.3903
@<TRIPOS>BOND
     1    1    2 1
     2    1   30 1
     3    1   31 1
     4    1   32 1
     5    2    3 1
     6    2   14 1
     7    2   29 1
     8    3    4 1
     9    3   33 1
    10    3   34 1
    11    4    5 2
    12    4    6 2
    13    4    7 1
    14    7   12 ar
    15    7    8 ar
    16    8    9 ar
    17    8   35 1
    18    9   10 ar
    19    9   36 1
    20   10   11 ar
    21   10   13 1
    22   11   12 ar
    23   11   37 1
    24   12   38 1
    25   14   22 1
    26   14   15 2
    27   15   16 1
    28   15   39 1
    29   16   21 ar
    30   16   17 ar
    31   17   18 ar
    32   17   40 1
    33   18   19 ar
    34   18   28 1
    35   19   20 ar
    36   19   24 1
    37   20   21 ar
    38   20   41 1
    39   21   22 1
    40   22   23 1
    41   24   25 1
    42   24   26 1
    43   24   27 1
    44   29   42 1
@<TRIPOS>MOLECULE
CHEMBL387570
   29    30     0     0     0
SMALL
USER_CHARGES

@<TRIPOS>ATOM
      1 C1          0.0083    1.5145    0.4040 C.2       1 <0>        -0.1464
      2 C2          1.1155    2.2322    0.2778 C.2       1 <0>        -0.1417
      3 C3          2.4326    1.5772    0.0731 C.2       1 <0>         0.2693
      4 C4          2.4426    0.0953    0.0610 C.2       1 <0>        -0.5523
      5 C5          1.1642   -0.5208   -0.4614 C.3       1 <0>         0.2250
      6 C6          0.0131    0.0261    0.3824 C.3       1 <0>        -0.0685
      7 C7         -1.2771   -0.5930   -0.0544 C.2       1 <0>        -0.1171
      8 C8         -1.2618   -1.8025   -0.6220 C.2       1 <0>        -0.1669
      9 C9          0.0144   -2.5094   -0.8292 C.2       1 <0>         0.5122
     10 O1          0.0447   -3.5751   -1.4126 O.2       1 <0>        -0.4557
     11 O2          1.1597   -1.9445   -0.3546 O.3       1 <0>        -0.3299
     12 C10        -2.5793    0.1392    0.1440 C.3       1 <0>         0.5015
     13 F1         -3.6326   -0.6423   -0.3427 F         1 <0>        -0.1777
     14 F2         -2.7727    0.3855    1.5075 F         1 <0>        -0.1701
     15 F3         -2.5414    1.3542   -0.5486 F         1 <0>        -0.1662
     16 N1          3.5287    2.2733   -0.0888 N.2       1 <0>        -0.6742
     17 C11         3.4600    3.7324   -0.2000 C.3       1 <0>         0.0234
     18 C12         3.9416    4.1614   -1.5875 C.3       1 <0>         0.4458
     19 F4          3.1260    3.5803   -2.5644 F         1 <0>        -0.1892
     20 F5          3.8760    5.5548   -1.6937 F         1 <0>        -0.2047
     21 F6          5.2630    3.7412   -1.7730 F         1 <0>        -0.1831
     22 H1         -0.9326    2.0292    0.5318 H         1 <0>         0.1063
     23 H2          1.0590    3.3097    0.3241 H         1 <0>         0.1061
     24 H3          3.2860   -0.4911    0.3944 H         1 <0>         0.1042
     25 H4          1.0214   -0.2337   -1.5032 H         1 <0>         0.0389
     26 H5          0.1850   -0.3072    1.4058 H         1 <0>         0.1139
     27 H6         -2.1885   -2.2640   -0.9298 H         1 <0>         0.1601
     28 H7          2.4305    4.0598   -0.0555 H         1 <0>         0.0575
     29 H8          4.0955    4.1851    0.5611 H         1 <0>         0.0796
@<TRIPOS>BOND
     1    1    6 1
     2    1    2 2
     3    1   22 1
     4    2    3 1
     5    2   23 1
     6    3    4 1
     7    3   16 2
     8    4    5 1
     9    4   24 1
    10    5   11 1
    11    5    6 1
    12    5   25 1
    13    6    7 1
    14    6   26 1
    15    7    8 2
    16    7   12 1
    17    8    9 1
    18    8   27 1
    19    9   10 2
    20    9   11 1
    21   12   13 1
    22   12   14 1
    23   12   15 1
    24   16   17 1
    25   17   18 1
    26   17   28 1
    27   17   29 1
    28   18   19 1
    29   18   20 1
    30   18   21 1
@<TRIPOS>MOLECULE
CHEMBL387570__1
   29    30     0     0     0
SMALL
USER_CHARGES

@<TRIPOS>ATOM
      1 C1         -0.0262    1.5132    0.0647 C.2       1 <0>        -0.1345
      2 C2          1.0483    2.2675   -0.0386 C.2       1 <0>        -0.1435
      3 C3          2.4006    1.6672    0.0975 C.2       1 <0>         0.2914
      4 C4          2.4429    0.1921    0.1488 C.2       1 <0>        -0.5532
      5 C5          1.2890   -0.4727    0.8697 C.3       1 <0>         0.2064
      6 C6         -0.0279    0.0378    0.3002 C.3       1 <0>        -0.0457
      7 C7         -1.1778   -0.3425    1.1914 C.2       1 <0>        -0.1337
      8 C8         -0.9905   -0.6818    2.4620 C.2       1 <0>        -0.1543
      9 C9          0.3744   -0.6974    3.0194 C.2       1 <0>         0.4988
     10 O1          0.6037   -1.1763    4.1126 O.2       1 <0>        -0.4708
     11 O2          1.3651   -0.1573    2.2652 O.3       1 <0>        -0.3451
     12 C10        -2.5763   -0.3382    0.6298 C.3       1 <0>         0.4984
     13 F1         -3.4803   -0.7212    1.6265 F         1 <0>        -0.1784
     14 F2         -2.8945    0.9480    0.1807 F         1 <0>        -0.1704
     15 F3         -2.6523   -1.2375   -0.4392 F         1 <0>        -0.1719
     16 N1          3.4836    2.3982    0.1679 N.2       1 <0>        -0.6510
     17 C11         3.3787    3.8574    0.2443 C.3       1 <0>         0.0198
     18 C12         3.9782    4.4787   -1.0188 C.3       1 <0>         0.4402
     19 F4          3.2804    4.0192   -2.1409 F         1 <0>        -0.1909
     20 F5          3.8781    5.8722   -0.9458 F         1 <0>        -0.2043
     21 F6          5.3244    4.1128   -1.1247 F         1 <0>        -0.1829
     22 H1         -0.9852    2.0020   -0.0237 H         1 <0>         0.0992
     23 H2          0.9462    3.3266   -0.2233 H         1 <0>         0.1045
     24 H3          3.2448   -0.3759   -0.2992 H         1 <0>         0.0998
     25 H4          1.3507   -1.5529    0.7368 H         1 <0>         0.0573
     26 H5         -0.1899   -0.4534   -0.6593 H         1 <0>         0.1081
     27 H6         -1.8336   -0.9450    3.0835 H         1 <0>         0.1555
     28 H7          2.3299    4.1425    0.3269 H         1 <0>         0.0596
     29 H8          3.9224    4.2154    1.1186 H         1 <0>         0.0917
@<TRIPOS>BOND
     1    1    6 1
     2    1    2 2
     3    1   22 1
     4    2    3 1
     5    2   23 1
     6    3    4 1
     7    3   16 2
     8    4    5 1
     9    4   24 1
    10    5   11 1
    11    5    6 1
    12    5   25 1
    13    6    7 1
    14    6   26 1
    15    7    8 2
    16    7   12 1
    17    8    9 1
    18    8   27 1
    19    9   10 2
    20    9   11 1
    21   12   13 1
    22   12   14 1
    23   12   15 1
    24   16   17 1
    25   17   18 1
    26   17   28 1
    27   17   29 1
    28   18   19 1
    29   18   20 1
    30   18   21 1
@<TRIPOS>MOLECULE
CHEMBL387570__2
   29    30     0     0     0
SMALL
USER_CHARGES

@<TRIPOS>ATOM
      1 C1          0.0045    1.5626    0.3711 C.2       1 <0>        -0.1347
      2 C2          1.0781    2.3167    0.2582 C.2       1 <0>        -0.1435
      3 C3          2.4150    1.6941    0.0768 C.2       1 <0>         0.2915
      4 C4          2.4632    0.2268    0.2342 C.2       1 <0>        -0.5531
      5 C5          1.2489   -0.5272   -0.2661 C.3       1 <0>         0.2063
      6 C6         -0.0091    0.0687    0.3515 C.3       1 <0>        -0.0456
      7 C7         -1.2386   -0.4282   -0.3578 C.2       1 <0>        -0.1337
      8 C8         -1.1751   -0.9478   -1.5787 C.2       1 <0>        -0.1543
      9 C9          0.1282   -1.0526   -2.2601 C.2       1 <0>         0.4988
     10 O1          0.2520   -1.6845   -3.2908 O.2       1 <0>        -0.4708
     11 O2          1.1844   -0.4162   -1.6931 O.3       1 <0>        -0.3450
     12 C10        -2.5747   -0.3339    0.3328 C.3       1 <0>         0.4984
     13 F1         -3.5697   -0.8501   -0.5042 F         1 <0>        -0.1784
     14 F2         -2.5378   -1.0695    1.5222 F         1 <0>        -0.1719
     15 F3         -2.8569    1.0056    0.6216 F         1 <0>        -0.1704
     16 N1          3.4801    2.4002   -0.2045 N.2       1 <0>        -0.6511
     17 C11         3.3566    3.8333   -0.4821 C.3       1 <0>         0.0200
     18 C12         4.0676    4.6284    0.6148 C.3       1 <0>         0.4400
     19 F4          5.4207    4.2741    0.6450 F         1 <0>        -0.1829
     20 F5          3.9497    5.9970    0.3498 F         1 <0>        -0.2043
     21 F6          3.4827    4.3410    1.8527 F         1 <0>        -0.1909
     22 H1         -0.9437    2.0653    0.4921 H         1 <0>         0.0991
     23 H2          0.9865    3.3921    0.2973 H         1 <0>         0.1044
     24 H3          3.3097   -0.2763    0.6777 H         1 <0>         0.0998
     25 H4          1.3317   -1.5773    0.0139 H         1 <0>         0.0573
     26 H5         -0.0718   -0.2783    1.3828 H         1 <0>         0.1080
     27 H6         -2.0734   -1.2921   -2.0694 H         1 <0>         0.1555
     28 H7          3.8124    4.0572   -1.4466 H         1 <0>         0.0918
     29 H8          2.3024    4.1094   -0.5056 H         1 <0>         0.0596
@<TRIPOS>BOND
     1    1    6 1
     2    1    2 2
     3    1   22 1
     4    2    3 1
     5    2   23 1
     6    3    4 1
     7    3   16 2
     8    4    5 1
     9    4   24 1
    10    5   11 1
    11    5    6 1
    12    5   25 1
    13    6    7 1
    14    6   26 1
    15    7    8 2
    16    7   12 1
    17    8    9 1
    18    8   27 1
    19    9   10 2
    20    9   11 1
    21   12   13 1
    22   12   14 1
    23   12   15 1
    24   16   17 1
    25   17   18 1
    26   17   28 1
    27   17   29 1
    28   18   19 1
    29   18   20 1
    30   18   21 1
@<TRIPOS>MOLECULE
CHEMBL387570__3
   29    30     0     0     0
SMALL
USER_CHARGES

@<TRIPOS>ATOM
      1 C1         -0.0075    1.5061    0.3813 C.2       1 <0>        -0.1478
      2 C2          1.0988    2.2268    0.2644 C.2       1 <0>        -0.1405
      3 C3          2.4263    1.5745    0.1304 C.2       1 <0>         0.2663
      4 C4          2.4374    0.0931    0.0928 C.2       1 <0>        -0.5475
      5 C5          1.3187   -0.5473    0.8833 C.3       1 <0>         0.2231
      6 C6          0.0009    0.0178    0.3539 C.3       1 <0>        -0.0673
      7 C7         -1.1497   -0.6231    1.0639 C.2       1 <0>        -0.1169
      8 C8         -1.0015   -1.8495    1.5730 C.2       1 <0>        -0.1673
      9 C9          0.2872   -2.5537    1.4503 C.2       1 <0>         0.5122
     10 O1          0.4539   -3.6368    1.9758 O.2       1 <0>        -0.4558
     11 O2          1.2877   -1.9671    0.7356 O.3       1 <0>        -0.3298
     12 C10        -2.4608    0.1066    1.2038 C.3       1 <0>         0.5015
     13 F1         -3.3696   -0.6967    1.9009 F         1 <0>        -0.1777
     14 F2         -2.2580    1.2992    1.9066 F         1 <0>        -0.1661
     15 F3         -2.9718    0.3949   -0.0662 F         1 <0>        -0.1701
     16 N1          3.5300    2.2725    0.0492 N.2       1 <0>        -0.6714
     17 C11         3.4678    3.7332   -0.0448 C.3       1 <0>         0.0226
     18 C12         4.0836    4.3518    1.2118 C.3       1 <0>         0.4428
     19 F4          5.4184    3.9482    1.3242 F         1 <0>        -0.1832
     20 F5          4.0241    5.7467    1.1220 F         1 <0>        -0.2050
     21 F6          3.3713    3.9262    2.3382 F         1 <0>        -0.1903
     22 H1         -0.9503    2.0181    0.5057 H         1 <0>         0.1060
     23 H2          1.0338    3.3048    0.2663 H         1 <0>         0.1046
     24 H3          3.1769   -0.4770   -0.4499 H         1 <0>         0.1050
     25 H4          1.4271   -0.2937    1.9378 H         1 <0>         0.0387
     26 H5         -0.0749   -0.2823   -0.6912 H         1 <0>         0.1140
     27 H6         -1.8292   -2.3265    2.0767 H         1 <0>         0.1601
     28 H7          4.0228    4.0648   -0.9224 H         1 <0>         0.0821
     29 H8          2.4278    4.0476   -0.1324 H         1 <0>         0.0577
@<TRIPOS>BOND
     1    1    6 1
     2    1    2 2
     3    1   22 1
     4    2    3 1
     5    2   23 1
     6    3    4 1
     7    3   16 2
     8    4    5 1
     9    4   24 1
    10    5   11 1
    11    5    6 1
    12    5   25 1
    13    6    7 1
    14    6   26 1
    15    7    8 2
    16    7   12 1
    17    8    9 1
    18    8   27 1
    19    9   10 2
    20    9   11 1
    21   12   13 1
    22   12   14 1
    23   12   15 1
    24   16   17 1
    25   17   18 1
    26   17   28 1
    27   17   29 1
    28   18   19 1
    29   18   20 1
    30   18   21 1
@<TRIPOS>MOLECULE
CHEMBL285602
   46    49     0     0     0
SMALL
USER_CHARGES

@<TRIPOS>ATOM
      1 C1         -0.0167    1.3782    0.0096 C.ar      1 <0>        -0.0341
      2 C2          1.1709    2.0855    0.0021 C.ar      1 <0>        -0.0811
      3 C3          2.3773    1.4107   -0.0130 C.ar      1 <0>        -0.0255
      4 C4          2.3960    0.0285   -0.0201 C.ar      1 <0>        -0.1787
      5 C5          1.2084   -0.6789   -0.0117 C.ar      1 <0>        -0.0206
      6 C6          0.0021   -0.0041    0.0020 C.ar      1 <0>        -0.1794
      7 C7         -1.2926   -0.7753    0.0107 C.3       1 <0>         0.5113
      8 F1         -1.7063   -1.0068   -1.3055 F         1 <0>        -0.1714
      9 F2         -1.1023   -1.9988    0.6618 F         1 <0>        -0.1719
     10 F3         -2.2712   -0.0361    0.6839 F         1 <0>        -0.1716
     11 C8          3.7112   -0.7071   -0.0376 C.3       1 <0>         0.5107
     12 F4          4.1319   -0.9414    1.2759 F         1 <0>        -0.1693
     13 F5          3.5536   -1.9284   -0.7016 F         1 <0>        -0.1724
     14 F6          4.6688    0.0654   -0.7033 F         1 <0>        -0.1732
     15 C9          1.1505    3.5924    0.0098 C.3       1 <0>         0.0044
     16 C10         1.8304    4.1133   -1.2560 C.3       1 <0>        -0.1354
     17 C11         1.9923    5.6346   -1.1409 C.3       1 <0>         0.1177
     18 N1          2.8878    5.9065   -0.0088 N.pl3     1 <0>        -0.7353
     19 C12         2.6939    5.2155    1.1879 C.ar      1 <0>         0.2908
     20 C13         1.8663    4.0940    1.2375 C.ar      1 <0>        -0.1660
     21 C14         1.6889    3.4248    2.4166 C.ar      1 <0>        -0.0083
     22 C15         2.3336    3.8623    3.5799 C.ar      1 <0>        -0.1676
     23 C16         2.1583    3.1792    4.8108 C.2       1 <0>        -0.0600
     24 C17         2.7986    3.6332    5.9166 C.2       1 <0>        -0.1669
     25 C18         3.6289    4.7704    5.8424 C.2       1 <0>         0.5417
     26 N2          3.8036    5.4266    4.6800 N.am      1 <0>        -0.6244
     27 C19         3.1686    4.9962    3.5331 C.ar      1 <0>         0.2487
     28 C20         3.3416    5.6651    2.3304 C.ar      1 <0>        -0.2470
     29 O1          4.1975    5.1651    6.8460 O.2       1 <0>        -0.5200
     30 C21         1.2707    1.9638    4.8887 C.3       1 <0>         0.5036
     31 F7          1.2628    1.4754    6.1996 F         1 <0>        -0.1673
     32 F8         -0.0311    2.3122    4.5130 F         1 <0>        -0.1675
     33 F9          1.7564    0.9755    4.0258 F         1 <0>        -0.1666
     34 H1         -0.9591    1.9053    0.0259 H         1 <0>         0.1499
     35 H2          3.3051    1.9634   -0.0196 H         1 <0>         0.1458
     36 H3          1.2231   -1.7588   -0.0179 H         1 <0>         0.1516
     37 H4          0.1171    3.9386    0.0286 H         1 <0>         0.1014
     38 H5          2.8107    3.6487   -1.3616 H         1 <0>         0.0786
     39 H6          1.2161    3.8761   -2.1246 H         1 <0>         0.0898
     40 H7          2.4273    6.0300   -2.0588 H         1 <0>         0.0914
     41 H8          1.0213    6.0968   -0.9628 H         1 <0>         0.0708
     42 H9          3.6032    6.5563   -0.0919 H         1 <0>         0.4096
     43 H10         1.0488    2.5556    2.4508 H         1 <0>         0.1334
     44 H11         2.6723    3.1209    6.8589 H         1 <0>         0.1690
     45 H12         3.9798    6.5351    2.2829 H         1 <0>         0.1397
     46 H13         4.3791    6.2068    4.6486 H         1 <0>         0.4212
@<TRIPOS>BOND
     1    1    6 ar
     2    1    2 ar
     3    1   34 1
     4    2    3 ar
     5    2   15 1
     6    3    4 ar
     7    3   35 1
     8    4    5 ar
     9    4   11 1
    10    5    6 ar
    11    5   36 1
    12    6    7 1
    13    7    8 1
    14    7    9 1
    15    7   10 1
    16   11   12 1
    17   11   13 1
    18   11   14 1
    19   15   20 1
    20   15   16 1
    21   15   37 1
    22   16   17 1
    23   16   38 1
    24   16   39 1
    25   17   18 1
    26   17   40 1
    27   17   41 1
    28   18   19 1
    29   18   42 1
    30   19   28 ar
    31   19   20 ar
    32   20   21 ar
    33   21   22 ar
    34   21   43 1
    35   22   27 ar
    36   22   23 1
    37   23   24 2
    38   23   30 1
    39   24   25 1
    40   24   44 1
    41   25   26 am
    42   25   29 2
    43   26   27 1
    44   26   46 1
    45   27   28 ar
    46   28   45 1
    47   30   31 1
    48   30   32 1
    49   30   33 1
@<TRIPOS>MOLECULE
CHEMBL285602__1
   46    49     0     0     0
SMALL
USER_CHARGES

@<TRIPOS>ATOM
      1 C1         -0.0167    1.3782    0.0096 C.ar      1 <0>        -0.0341
      2 C2          1.1709    2.0855    0.0021 C.ar      1 <0>        -0.0811
      3 C3          2.3773    1.4107   -0.0130 C.ar      1 <0>        -0.0254
      4 C4          2.3960    0.0285   -0.0201 C.ar      1 <0>        -0.1787
      5 C5          1.2084   -0.6789   -0.0117 C.ar      1 <0>        -0.0206
      6 C6          0.0021   -0.0041    0.0020 C.ar      1 <0>        -0.1794
      7 C7         -1.2926   -0.7753    0.0107 C.3       1 <0>         0.5114
      8 F1         -1.7063   -1.0068   -1.3055 F         1 <0>        -0.1701
      9 F2         -1.1023   -1.9988    0.6618 F         1 <0>        -0.1724
     10 F3         -2.2712   -0.0361    0.6839 F         1 <0>        -0.1724
     11 C8          3.7112   -0.7071   -0.0376 C.3       1 <0>         0.5108
     12 F4          4.1319   -0.9414    1.2759 F         1 <0>        -0.1719
     13 F5          3.5536   -1.9284   -0.7016 F         1 <0>        -0.1715
     14 F6          4.6688    0.0654   -0.7033 F         1 <0>        -0.1716
     15 C9          1.1505    3.5924    0.0098 C.3       1 <0>         0.0044
     16 C10         1.8539    4.1007    1.2678 C.3       1 <0>        -0.1352
     17 C11         2.0138    5.6231    1.1650 C.3       1 <0>         0.1178
     18 N1          2.8880    5.9064    0.0192 N.pl3     1 <0>        -0.7354
     19 C12         2.6718    5.2274   -1.1806 C.ar      1 <0>         0.2908
     20 C13         1.8433    4.1063   -1.2259 C.ar      1 <0>        -0.1659
     21 C14         1.6439    3.4489   -2.4081 C.ar      1 <0>        -0.0081
     22 C15         2.2675    3.8976   -3.5787 C.ar      1 <0>        -0.1674
     23 C16         2.0699    3.2263   -4.8127 C.2       1 <0>        -0.0601
     24 C17         2.6903    3.6909   -5.9254 C.2       1 <0>        -0.1670
     25 C18         3.5212    4.8279   -5.8556 C.2       1 <0>         0.5417
     26 N2          3.7169    5.4730   -4.6903 N.am      1 <0>        -0.6244
     27 C19         3.1033    5.0311   -3.5361 C.ar      1 <0>         0.2488
     28 C20         3.2981    5.6885   -2.3304 C.ar      1 <0>        -0.2469
     29 O1          4.0709    5.2327   -6.8656 O.2       1 <0>        -0.5200
     30 C21         1.1817    2.0110   -4.8860 C.3       1 <0>         0.5039
     31 F7          1.1499    1.5353   -6.2012 F         1 <0>        -0.1673
     32 F8          1.6838    1.0149   -4.0417 F         1 <0>        -0.1671
     33 F9         -0.1131    2.3549   -4.4830 F         1 <0>        -0.1674
     34 H1         -0.9591    1.9053    0.0259 H         1 <0>         0.1499
     35 H2          3.3051    1.9634   -0.0196 H         1 <0>         0.1458
     36 H3          1.2231   -1.7588   -0.0179 H         1 <0>         0.1516
     37 H4          0.1170    3.9386    0.0138 H         1 <0>         0.1014
     38 H5          1.2559    3.8547    2.1453 H         1 <0>         0.0900
     39 H6          2.8360    3.6351    1.3505 H         1 <0>         0.0781
     40 H7          1.0398    6.0869    1.0097 H         1 <0>         0.0708
     41 H8          2.4659    6.0093    2.0786 H         1 <0>         0.0914
     42 H9          3.6045    6.5558    0.0952 H         1 <0>         0.4096
     43 H10         1.0032    2.5801   -2.4391 H         1 <0>         0.1332
     44 H11         2.5469    3.1876   -6.8702 H         1 <0>         0.1690
     45 H12         3.9366    6.5584   -2.2862 H         1 <0>         0.1397
     46 H13         4.2924    6.2533   -4.6619 H         1 <0>         0.4212
@<TRIPOS>BOND
     1    1    6 ar
     2    1    2 ar
     3    1   34 1
     4    2    3 ar
     5    2   15 1
     6    3    4 ar
     7    3   35 1
     8    4    5 ar
     9    4   11 1
    10    5    6 ar
    11    5   36 1
    12    6    7 1
    13    7    8 1
    14    7    9 1
    15    7   10 1
    16   11   12 1
    17   11   13 1
    18   11   14 1
    19   15   20 1
    20   15   16 1
    21   15   37 1
    22   16   17 1
    23   16   38 1
    24   16   39 1
    25   17   18 1
    26   17   40 1
    27   17   41 1
    28   18   19 1
    29   18   42 1
    30   19   28 ar
    31   19   20 ar
    32   20   21 ar
    33   21   22 ar
    34   21   43 1
    35   22   27 ar
    36   22   23 1
    37   23   24 2
    38   23   30 1
    39   24   25 1
    40   24   44 1
    41   25   26 am
    42   25   29 2
    43   26   27 1
    44   26   46 1
    45   27   28 ar
    46   28   45 1
    47   30   31 1
    48   30   32 1
    49   30   33 1
@<TRIPOS>MOLECULE
CHEMBL75050
   53    57     0     0     0
SMALL
USER_CHARGES

@<TRIPOS>ATOM
      1 C1         -0.0187    1.5258    0.0104 C.3       1 <0>        -0.1489
      2 C2          0.0021   -0.0041    0.0020 C.3       1 <0>        -0.0542
      3 C3          0.7651   -0.4988   -1.2113 C.3       1 <0>        -0.0926
      4 C4          2.1483    0.1706   -1.1822 C.3       1 <0>        -0.1190
      5 C5          2.8949   -0.1322    0.1135 C.3       1 <0>        -0.0707
      6 C6          2.0614    0.2380    1.3487 C.3       1 <0>        -0.0766
      7 C7          0.7524   -0.5251    1.2586 C.3       1 <0>        -0.0807
      8 C8         -0.2646   -0.2471    2.3715 C.3       1 <0>        -0.1141
      9 C9         -1.6159   -0.6536    1.7173 C.3       1 <0>        -0.1378
     10 C10        -1.4051   -0.5363    0.1947 C.3       1 <0>         0.1199
     11 C11        -2.4543    0.4168   -0.4110 C.3       1 <0>        -0.1422
     12 C12        -3.6497   -0.5560   -0.6143 C.3       1 <0>        -0.1582
     13 C13        -2.9391   -1.8867   -0.9459 C.3       1 <0>         0.0494
     14 O1         -1.5984   -1.7984   -0.4430 O.3       1 <0>        -0.3639
     15 C14         2.8184   -0.1852    2.6108 C.3       1 <0>        -0.1132
     16 C15         4.1096    0.6286    2.7208 C.3       1 <0>        -0.0972
     17 C16         4.9081    0.4494    1.4422 C.2       1 <0>        -0.0242
     18 C17         6.1969    0.1296    1.5553 C.2       1 <0>        -0.2446
     19 C18         7.0182   -0.0397    0.3513 C.2       1 <0>         0.3879
     20 O2          8.0464   -0.6837    0.3641 O.2       1 <0>        -0.4583
     21 C19         6.5126    0.6333   -0.9099 C.3       1 <0>        -0.1681
     22 C20         5.0439    0.2473   -1.0772 C.3       1 <0>        -0.1096
     23 C21         4.2144    0.6491    0.1297 C.3       1 <0>        -0.0592
     24 H1          1.0039    1.9031    0.0027 H         1 <0>         0.0699
     25 H2         -0.5459    1.8868   -0.8726 H         1 <0>         0.0573
     26 H3         -0.5289    1.8773    0.9072 H         1 <0>         0.0575
     27 H4          0.8758   -1.5821   -1.1638 H         1 <0>         0.0701
     28 H5          0.2361   -0.2185   -2.1222 H         1 <0>         0.0618
     29 H6          2.7368   -0.1928   -2.0247 H         1 <0>         0.0650
     30 H7          2.0232    1.2492   -1.2767 H         1 <0>         0.0668
     31 H8          3.1151   -1.1990    0.1539 H         1 <0>         0.0715
     32 H9          1.8678    1.3106    1.3604 H         1 <0>         0.0841
     33 H10         0.9461   -1.5940    1.1687 H         1 <0>         0.0786
     34 H11        -0.0582   -0.8646    3.2457 H         1 <0>         0.0666
     35 H12        -0.2670    0.8101    2.6366 H         1 <0>         0.0689
     36 H13        -1.8678   -1.6802    1.9833 H         1 <0>         0.0733
     37 H14        -2.4073    0.0231    2.0398 H         1 <0>         0.0685
     38 H15        -2.7104    1.2142    0.2866 H         1 <0>         0.0830
     39 H16        -2.1126    0.8242   -1.3625 H         1 <0>         0.0793
     40 H17        -4.2355   -0.6467    0.3003 H         1 <0>         0.0753
     41 H18        -4.2753   -0.2328   -1.4463 H         1 <0>         0.0802
     42 H19        -3.4607   -2.7143   -0.4652 H         1 <0>         0.0667
     43 H20        -2.9201   -2.0369   -2.0253 H         1 <0>         0.0678
     44 H21         2.1966   -0.0016    3.4870 H         1 <0>         0.0716
     45 H22         3.0607   -1.2462    2.5513 H         1 <0>         0.0657
     46 H23         3.8671    1.6826    2.8558 H         1 <0>         0.0835
     47 H24         4.6941    0.2738    3.5696 H         1 <0>         0.0770
     48 H25         6.6366   -0.0046    2.5326 H         1 <0>         0.1332
     49 H26         6.6026    1.7153   -0.8139 H         1 <0>         0.0993
     50 H27         7.0866    0.2878   -1.7697 H         1 <0>         0.0922
     51 H28         4.6453    0.7422   -1.9628 H         1 <0>         0.0823
     52 H29         4.9736   -0.8319   -1.2132 H         1 <0>         0.0692
     53 H30         3.9799    1.7087    0.0284 H         1 <0>         0.0895
@<TRIPOS>BOND
     1    1    2 1
     2    1   24 1
     3    1   25 1
     4    1   26 1
     5    2    7 1
     6    2   10 1
     7    2    3 1
     8    3    4 1
     9    3   27 1
    10    3   28 1
    11    4    5 1
    12    4   29 1
    13    4   30 1
    14    5   23 1
    15    5    6 1
    16    5   31 1
    17    6    7 1
    18    6   15 1
    19    6   32 1
    20    7    8 1
    21    7   33 1
    22    8    9 1
    23    8   34 1
    24    8   35 1
    25    9   10 1
    26    9   36 1
    27    9   37 1
    28   10   14 1
    29   10   11 1
    30   11   12 1
    31   11   38 1
    32   11   39 1
    33   12   13 1
    34   12   40 1
    35   12   41 1
    36   13   14 1
    37   13   42 1
    38   13   43 1
    39   15   16 1
    40   15   44 1
    41   15   45 1
    42   16   17 1
    43   16   46 1
    44   16   47 1
    45   17   23 1
    46   17   18 2
    47   18   19 1
    48   18   48 1
    49   19   20 2
    50   19   21 1
    51   21   22 1
    52   21   49 1
    53   21   50 1
    54   22   23 1
    55   22   51 1
    56   22   52 1
    57   23   53 1
@<TRIPOS>MOLECULE
CHEMBL429842
   47    50     0     0     0
SMALL
USER_CHARGES

@<TRIPOS>ATOM
      1 C1         -0.3198    1.3098   -0.2802 C.3       1 <0>        -0.1088
      2 C2         -0.2768   -0.1934   -0.1824 C.ar      1 <0>        -0.1513
      3 C3         -0.3755   -0.9589   -1.3241 C.ar      1 <0>        -0.0477
      4 C4         -0.3353   -2.3493   -1.2314 C.ar      1 <0>        -0.0998
      5 C5         -0.1975   -2.9586    0.0151 C.ar      1 <0>         0.0139
      6 C6         -0.0995   -2.1872    1.1594 C.ar      1 <0>        -0.1355
      7 C7         -0.1318   -0.8036    1.0601 C.ar      1 <0>         0.2415
      8 N1         -0.0203   -0.0010    2.2008 N.pl3     1 <0>        -0.7334
      9 C8         -0.1663   -0.6220    3.5241 C.3       1 <0>         0.1705
     10 C9          0.6485   -1.9221    3.5243 C.3       1 <0>        -0.1200
     11 C10         0.0433   -2.8775    2.4905 C.3       1 <0>        -0.0409
     12 C11         0.9671   -4.0871    2.3355 C.3       1 <0>        -0.1592
     13 C12        -1.6403   -0.9342    3.7901 C.3       1 <0>        -0.1617
     14 C13         0.3669    0.3238    4.6021 C.3       1 <0>        -0.1543
     15 Cl1        -0.1491   -4.6900    0.1316 Cl        1 <0>        -0.0539
     16 C14        -0.4395   -3.1786   -2.4558 C.ar      1 <0>        -0.0245
     17 C15         0.5603   -3.1280   -3.4197 C.ar      1 <0>        -0.0943
     18 C16         0.4709   -3.9000   -4.5685 C.ar      1 <0>         0.0416
     19 C17        -0.6141   -4.7306   -4.7710 C.ar      1 <0>         0.1151
     20 C18        -1.6302   -4.7952   -3.8118 C.ar      1 <0>        -0.1228
     21 C19        -1.5440   -4.0209   -2.6432 C.ar      1 <0>         0.1365
     22 N2         -2.6652   -4.2912   -1.8921 N.pl3     1 <0>        -0.5798
     23 H1         -2.8697   -3.8912   -1.0325 H         1 <0>         0.4197
     24 C20        -3.4487   -5.2081   -2.5390 C.2       1 <0>         0.0628
     25 C21        -2.8842   -5.5461   -3.7090 C.2       1 <0>        -0.1911
     26 F1         -0.6939   -5.4785   -5.8932 F         1 <0>        -0.1246
     27 F2          1.4513   -3.8388   -5.4959 F         1 <0>        -0.1297
     28 H2          0.6915    1.6944   -0.4122 H         1 <0>         0.0698
     29 H3         -0.9334    1.6010   -1.1328 H         1 <0>         0.0710
     30 H4         -0.7487    1.7212    0.6335 H         1 <0>         0.0627
     31 H5         -0.4840   -0.4831   -2.2875 H         1 <0>         0.1343
     32 H6          0.1510    0.9503    2.1191 H         1 <0>         0.4036
     33 H7          1.6849   -1.7037    3.2671 H         1 <0>         0.0733
     34 H8          0.6043   -2.3806    4.5122 H         1 <0>         0.0797
     35 H9         -0.9368   -3.2149    2.8278 H         1 <0>         0.0835
     36 H10         1.7115   -3.8797    1.5667 H         1 <0>         0.0595
     37 H11         1.4687   -4.2851    3.2828 H         1 <0>         0.0518
     38 H12         0.3795   -4.9585    2.0465 H         1 <0>         0.0734
     39 H13        -2.0099   -1.6197    3.0275 H         1 <0>         0.0614
     40 H14        -1.7425   -1.3947    4.7728 H         1 <0>         0.0669
     41 H15        -2.2185   -0.0108    3.7596 H         1 <0>         0.0589
     42 H16        -0.1963    1.2567    4.5777 H         1 <0>         0.0627
     43 H17         0.2560   -0.1420    5.5813 H         1 <0>         0.0749
     44 H18         1.4206    0.5305    4.4152 H         1 <0>         0.0638
     45 H19         1.4135   -2.4823   -3.2732 H         1 <0>         0.1491
     46 H20        -4.3865   -5.5945   -2.1680 H         1 <0>         0.1779
     47 H21        -3.2742   -6.2477   -4.4317 H         1 <0>         0.1535
@<TRIPOS>BOND
     1    1    2 1
     2    1   28 1
     3    1   29 1
     4    1   30 1
     5    2    7 ar
     6    2    3 ar
     7    3    4 ar
     8    3   31 1
     9    4    5 ar
    10    4   16 1
    11    5    6 ar
    12    5   15 1
    13    6   11 1
    14    6    7 ar
    15    7    8 1
    16    8    9 1
    17    8   32 1
    18    9   10 1
    19    9   13 1
    20    9   14 1
    21   10   11 1
    22   10   33 1
    23   10   34 1
    24   11   12 1
    25   11   35 1
    26   12   36 1
    27   12   37 1
    28   12   38 1
    29   13   39 1
    30   13   40 1
    31   13   41 1
    32   14   42 1
    33   14   43 1
    34   14   44 1
    35   16   21 ar
    36   16   17 ar
    37   17   18 ar
    38   17   45 1
    39   18   19 ar
    40   18   27 1
    41   19   20 ar
    42   19   26 1
    43   20   25 1
    44   20   21 ar
    45   21   22 1
    46   22   23 1
    47   22   24 1
    48   24   25 2
    49   24   46 1
    50   25   47 1
@<TRIPOS>MOLECULE
CHEMBL429842__1
   47    50     0     0     0
SMALL
USER_CHARGES

@<TRIPOS>ATOM
      1 C1         -0.1480    1.5789    0.1580 C.3       1 <0>        -0.1055
      2 C2         -0.1211    0.0732    0.1005 C.ar      1 <0>        -0.1513
      3 C3         -0.1675   -0.5683   -1.1183 C.ar      1 <0>        -0.0478
      4 C4         -0.1418   -1.9612   -1.1693 C.ar      1 <0>        -0.0995
      5 C5         -0.0675   -2.6982    0.0120 C.ar      1 <0>         0.0140
      6 C6         -0.0202   -2.0510    1.2339 C.ar      1 <0>        -0.1350
      7 C7         -0.0438   -0.6644    1.2783 C.ar      1 <0>         0.2416
      8 N1         -0.0010    0.0137    2.5014 N.pl3     1 <0>        -0.7342
      9 C8          0.3768   -0.7275    3.7123 C.3       1 <0>         0.1717
     10 C9         -0.3797   -2.0623    3.7001 C.3       1 <0>        -0.1201
     11 C10         0.0650   -2.8771    2.4904 C.3       1 <0>        -0.0420
     12 C11        -0.8263   -4.1121    2.3442 C.3       1 <0>        -0.1564
     13 C12        -0.0116    0.0769    4.9545 C.3       1 <0>        -0.1539
     14 C13         1.8847   -0.9864    3.7120 C.3       1 <0>        -0.1624
     15 Cl1        -0.0348   -4.4327   -0.0506 Cl        1 <0>        -0.0538
     16 C14        -0.1939   -2.6576   -2.4770 C.ar      1 <0>        -0.0247
     17 C15         0.8508   -2.5194   -3.3829 C.ar      1 <0>        -0.0943
     18 C16         0.8103   -3.1668   -4.6088 C.ar      1 <0>         0.0416
     19 C17        -0.2698   -3.9587   -4.9469 C.ar      1 <0>         0.1152
     20 C18        -1.3306   -4.1102   -4.0478 C.ar      1 <0>        -0.1228
     21 C19        -1.2943   -3.4625   -2.8021 C.ar      1 <0>         0.1367
     22 N2         -2.4517   -3.7957   -2.1361 N.pl3     1 <0>        -0.5797
     23 H1         -2.6938   -3.4847   -1.2498 H         1 <0>         0.4196
     24 C20        -3.2103   -4.6310   -2.9106 C.2       1 <0>         0.0628
     25 C21        -2.5935   -4.8526   -4.0821 C.2       1 <0>        -0.1910
     26 F1         -0.3018   -4.5852   -6.1434 F         1 <0>        -0.1246
     27 F2          1.8340   -3.0215   -5.4784 F         1 <0>        -0.1297
     28 H2          0.8715    1.9623    0.1172 H         1 <0>         0.0711
     29 H3         -0.7154    1.9647   -0.6889 H         1 <0>         0.0705
     30 H4         -0.6196    1.8986    1.0872 H         1 <0>         0.0595
     31 H5         -0.2240    0.0062   -2.0310 H         1 <0>         0.1344
     32 H6         -0.2170    0.9581    2.5491 H         1 <0>         0.4028
     33 H7         -0.1618   -2.6139    4.6147 H         1 <0>         0.0802
     34 H8         -1.4511   -1.8743    3.6313 H         1 <0>         0.0710
     35 H9          1.0965   -3.1947    2.6429 H         1 <0>         0.0832
     36 H10        -0.2570   -4.9183    1.8816 H         1 <0>         0.0750
     37 H11        -1.1717   -4.4294    3.3281 H         1 <0>         0.0521
     38 H12        -1.6851   -3.8684    1.7187 H         1 <0>         0.0554
     39 H13        -1.0885    0.2453    4.9562 H         1 <0>         0.0632
     40 H14         0.2709   -0.4776    5.8494 H         1 <0>         0.0750
     41 H15         0.5061    1.0360    4.9428 H         1 <0>         0.0630
     42 H16         2.4167   -0.0353    3.6909 H         1 <0>         0.0594
     43 H17         2.1591   -1.5364    4.6122 H         1 <0>         0.0669
     44 H18         2.1526   -1.5721    2.8326 H         1 <0>         0.0624
     45 H19         1.7008   -1.9027   -3.1306 H         1 <0>         0.1492
     46 H20        -4.1674   -5.0424   -2.6257 H         1 <0>         0.1779
     47 H21        -2.9539   -5.4706   -4.8912 H         1 <0>         0.1535
@<TRIPOS>BOND
     1    1    2 1
     2    1   28 1
     3    1   29 1
     4    1   30 1
     5    2    7 ar
     6    2    3 ar
     7    3    4 ar
     8    3   31 1
     9    4    5 ar
    10    4   16 1
    11    5    6 ar
    12    5   15 1
    13    6   11 1
    14    6    7 ar
    15    7    8 1
    16    8    9 1
    17    8   32 1
    18    9   10 1
    19    9   13 1
    20    9   14 1
    21   10   11 1
    22   10   33 1
    23   10   34 1
    24   11   12 1
    25   11   35 1
    26   12   36 1
    27   12   37 1
    28   12   38 1
    29   13   39 1
    30   13   40 1
    31   13   41 1
    32   14   42 1
    33   14   43 1
    34   14   44 1
    35   16   21 ar
    36   16   17 ar
    37   17   18 ar
    38   17   45 1
    39   18   19 ar
    40   18   27 1
    41   19   20 ar
    42   19   26 1
    43   20   25 1
    44   20   21 ar
    45   21   22 1
    46   22   23 1
    47   22   24 1
    48   24   25 2
    49   24   46 1
    50   25   47 1
@<TRIPOS>MOLECULE
CHEMBL50241
   73    75     0     0     0
SMALL
USER_CHARGES

@<TRIPOS>ATOM
      1 C1         -0.4723   -0.1929   -0.5104 C.3       1 <0>        -0.1492
      2 C2         -1.2479   -1.5021   -0.3520 C.3       1 <0>        -0.0889
      3 C3         -0.8663   -2.1639    0.9737 C.3       1 <0>        -0.1504
      4 C4         -2.7497   -1.2097   -0.3623 C.3       1 <0>        -0.0561
      5 C5         -3.5260   -2.5281   -0.3617 C.3       1 <0>        -0.1449
      6 C6         -3.0995   -0.4213   -1.5980 C.2       1 <0>        -0.1492
      7 C7         -3.7840    0.6908   -1.4935 C.2       1 <0>        -0.1421
      8 C8         -4.2435    1.4121   -2.7343 C.3       1 <0>        -0.0554
      9 C9         -5.7671    1.3223   -2.8416 C.3       1 <0>        -0.1449
     10 C10        -3.8236    2.8812   -2.6552 C.3       1 <0>        -0.0691
     11 C11        -4.2313    3.6287   -3.9517 C.3       1 <0>        -0.1192
     12 C12        -2.9242    4.2354   -4.5357 C.3       1 <0>        -0.1166
     13 C13        -2.0245    4.3494   -3.3029 C.3       1 <0>        -0.0607
     14 C14        -2.3083    2.9949   -2.5938 C.3       1 <0>        -0.0462
     15 C15        -1.6469    3.0425   -1.2362 C.3       1 <0>        -0.1049
     16 C16        -0.1256    3.0445   -1.4612 C.3       1 <0>        -0.1176
     17 C17         0.3211    4.2373   -2.3042 C.3       1 <0>        -0.0912
     18 C18        -0.5451    4.3718   -3.5486 C.2       1 <0>        -0.0807
     19 C19        -0.0259    4.5000   -4.7695 C.2       1 <0>        -0.1525
     20 C20         1.4277    4.5155   -4.9492 C.2       1 <0>        -0.1079
     21 C21         1.9532    4.6452   -6.1849 C.2       1 <0>        -0.0926
     22 C22         3.4514    4.6594   -6.4136 C.3       1 <0>        -0.1103
     23 C23         3.7850    5.8213   -7.3549 C.3       1 <0>         0.1084
     24 H1          3.5068    6.7627   -6.8812 H         1 <0>         0.0568
     25 C24         3.0132    5.6643   -8.6656 C.3       1 <0>        -0.1110
     26 C25         1.5112    5.8176   -8.4052 C.3       1 <0>        -0.0800
     27 C26         1.0958    4.7741   -7.3817 C.2       1 <0>        -0.0879
     28 C27         0.0135    4.0148   -7.5509 C.2       1 <0>        -0.1832
     29 O1          5.1876    5.8234   -7.6284 O.3       1 <0>        -0.5676
     30 C28        -1.6832    1.8603   -3.4080 C.3       1 <0>        -0.1576
     31 H2          0.5902   -0.3788   -0.3534 H         1 <0>         0.0499
     32 H3         -0.6276    0.2023   -1.5143 H         1 <0>         0.0620
     33 H4         -0.8269    0.5306    0.2238 H         1 <0>         0.0538
     34 H5         -1.0025   -2.1718   -1.1763 H         1 <0>         0.0677
     35 H6         -1.1117   -1.4942    1.7979 H         1 <0>         0.0531
     36 H7         -1.4189   -3.0966    1.0865 H         1 <0>         0.0558
     37 H8          0.2036   -2.3722    0.9810 H         1 <0>         0.0533
     38 H9         -3.0135   -0.6323    0.5238 H         1 <0>         0.0704
     39 H10        -3.2730   -3.0984    0.5321 H         1 <0>         0.0579
     40 H11        -4.5959   -2.3197   -0.3691 H         1 <0>         0.0538
     41 H12        -3.2622   -3.1054   -1.2479 H         1 <0>         0.0543
     42 H13        -2.7858   -0.7730   -2.5698 H         1 <0>         0.1058
     43 H14        -4.0189    1.0907   -0.5182 H         1 <0>         0.1044
     44 H15        -3.7897    0.9512   -3.6117 H         1 <0>         0.0777
     45 H16        -6.0995    1.8440   -3.7391 H         1 <0>         0.0576
     46 H17        -6.0663    0.2757   -2.8980 H         1 <0>         0.0534
     47 H18        -6.2210    1.7832   -1.9643 H         1 <0>         0.0539
     48 H19        -4.2746    3.3569   -1.7844 H         1 <0>         0.0717
     49 H20        -4.6706    2.9303   -4.6640 H         1 <0>         0.0666
     50 H21        -4.9410    4.4225   -3.7187 H         1 <0>         0.0632
     51 H22        -2.4839    3.5658   -5.2745 H         1 <0>         0.0702
     52 H23        -3.1137    5.2180   -4.9677 H         1 <0>         0.0633
     53 H24        -2.3248    5.1939   -2.6827 H         1 <0>         0.0839
     54 H25        -1.9445    3.9503   -0.7114 H         1 <0>         0.0585
     55 H26        -1.9337    2.1668   -0.6541 H         1 <0>         0.0719
     56 H27         0.3764    3.0849   -0.4945 H         1 <0>         0.0591
     57 H28         0.1595    2.1235   -1.9698 H         1 <0>         0.0697
     58 H29         0.2395    5.1475   -1.7100 H         1 <0>         0.0699
     59 H30         1.3597    4.0967   -2.6034 H         1 <0>         0.0697
     60 H31        -0.6769    4.5924   -5.6262 H         1 <0>         0.1288
     61 H32         2.0788    4.4231   -4.0925 H         1 <0>         0.1187
     62 H33         3.9667    4.7974   -5.4631 H         1 <0>         0.0714
     63 H34         3.7626    3.7184   -6.8673 H         1 <0>         0.0828
     64 H35         3.3384    6.4286   -9.3714 H         1 <0>         0.0742
     65 H36         3.2092    4.6777   -9.0856 H         1 <0>         0.0712
     66 H37         1.3054    6.8164   -8.0204 H         1 <0>         0.0767
     67 H38         0.9598    5.6597   -9.3321 H         1 <0>         0.0776
     68 H39        -0.2552    3.2833   -6.8031 H         1 <0>         0.1071
     69 H40        -0.5947    4.1309   -8.4358 H         1 <0>         0.1029
     70 H41         5.7415    5.9244   -6.8422 H         1 <0>         0.3788
     71 H42        -2.1523    1.8173   -4.3910 H         1 <0>         0.0505
     72 H43        -0.6146    2.0416   -3.5230 H         1 <0>         0.0601
     73 H44        -1.8375    0.9137   -2.8901 H         1 <0>         0.0694
@<TRIPOS>BOND
     1    1    2 1
     2    1   31 1
     3    1   32 1
     4    1   33 1
     5    2    3 1
     6    2    4 1
     7    2   34 1
     8    3   35 1
     9    3   36 1
    10    3   37 1
    11    4    5 1
    12    4    6 1
    13    4   38 1
    14    5   39 1
    15    5   40 1
    16    5   41 1
    17    6    7 2
    18    6   42 1
    19    7    8 1
    20    7   43 1
    21    8    9 1
    22    8   10 1
    23    8   44 1
    24    9   45 1
    25    9   46 1
    26    9   47 1
    27   10   14 1
    28   10   11 1
    29   10   48 1
    30   11   12 1
    31   11   49 1
    32   11   50 1
    33   12   13 1
    34   12   51 1
    35   12   52 1
    36   13   18 1
    37   13   14 1
    38   13   53 1
    39   14   15 1
    40   14   30 1
    41   15   16 1
    42   15   54 1
    43   15   55 1
    44   16   17 1
    45   16   56 1
    46   16   57 1
    47   17   18 1
    48   17   58 1
    49   17   59 1
    50   18   19 2
    51   19   20 1
    52   19   60 1
    53   20   21 2
    54   20   61 1
    55   21   27 1
    56   21   22 1
    57   22   23 1
    58   22   62 1
    59   22   63 1
    60   23   24 1
    61   23   25 1
    62   23   29 1
    63   25   26 1
    64   25   64 1
    65   25   65 1
    66   26   27 1
    67   26   66 1
    68   26   67 1
    69   27   28 2
    70   28   68 1
    71   28   69 1
    72   29   70 1
    73   30   71 1
    74   30   72 1
    75   30   73 1
@<TRIPOS>MOLECULE
CHEMBL562394
   69    74     0     0     0
SMALL
USER_CHARGES

@<TRIPOS>ATOM
      1 C1         -1.2848    2.6633    0.4411 C.3       1 <0>        -0.1352
      2 C2         -0.7322    1.2656    0.1549 C.3       1 <0>        -0.0551
      3 C3          0.0407    1.2761   -1.1488 C.3       1 <0>        -0.1016
      4 C4          1.1051    2.3809   -1.0377 C.3       1 <0>        -0.1172
      5 C5          2.0192    2.1566    0.1619 C.3       1 <0>        -0.0640
      6 H1          2.5836    1.2372    0.0061 H         1 <0>         0.0701
      7 C6          1.2216    2.0319    1.4685 C.3       1 <0>        -0.0734
      8 H2          0.6758    2.9555    1.6613 H         1 <0>         0.0921
      9 C7          0.2607    0.8518    1.2763 C.3       1 <0>        -0.0811
     10 H3          0.8026   -0.0506    0.9931 H         1 <0>         0.0822
     11 C8         -0.6994    0.5769    2.4376 C.3       1 <0>        -0.1009
     12 C9         -1.8550   -0.1650    1.7640 C.2       1 <0>        -0.1266
     13 C10        -2.7061   -0.9965    2.3502 C.2       1 <0>        -0.1027
     14 C11        -2.6994   -1.1456    3.8197 C.ar      1 <0>        -0.1490
     15 C12        -1.9261   -0.2994    4.6242 C.ar      1 <0>         0.1233
     16 N1         -1.9473   -0.4651    5.9333 N.ar      1 <0>        -0.4729
     17 C13        -2.6871   -1.4163    6.4874 C.ar      1 <0>         0.3524
     18 N2         -3.4324   -2.2378    5.7602 N.ar      1 <0>        -0.5026
     19 C14        -3.4706   -2.1332    4.4452 C.ar      1 <0>         0.1594
     20 C15        -2.6803   -1.5661    7.9629 C.ar      1 <0>         0.1658
     21 C16        -3.4477   -2.5643    8.5595 C.ar      1 <0>        -0.1225
     22 C17        -3.4308   -2.6921    9.9381 C.ar      1 <0>        -0.0828
     23 C18        -2.6462   -1.8165   10.6747 C.ar      1 <0>        -0.1553
     24 C19        -1.9090   -0.8483   10.0162 C.ar      1 <0>         0.0971
     25 N3         -1.9392   -0.7519    8.7033 N.ar      1 <0>        -0.4427
     26 C20        -1.8446    0.2322    0.2912 C.3       1 <0>         0.1475
     27 H4         -1.6309   -0.6363   -0.3319 H         1 <0>         0.0682
     28 O1         -3.1007    0.8070   -0.0746 O.3       1 <0>        -0.5480
     29 C21         2.1916    1.7488    2.6177 C.3       1 <0>        -0.1227
     30 C22         3.1748    2.9138    2.7445 C.3       1 <0>        -0.1288
     31 C23         3.9571    3.0781    1.4454 C.3       1 <0>         0.1542
     32 H5          4.6142    3.9430    1.5368 H         1 <0>         0.0729
     33 C24         3.0027    3.3221    0.2917 C.3       1 <0>        -0.0473
     34 C25         3.8112    3.4132   -0.9824 C.2       1 <0>        -0.0843
     35 C26         4.8596    2.6056   -1.1419 C.2       1 <0>        -0.1958
     36 C27         5.1913    1.6428   -0.0758 C.2       1 <0>         0.5464
     37 O2          5.8364    0.6433   -0.3285 O.2       1 <0>        -0.5363
     38 N4          4.7713    1.8913    1.1850 N.am      1 <0>        -0.6080
     39 C28         5.1313    0.9898    2.2823 C.3       1 <0>         0.0827
     40 C29         2.2328    4.6227    0.5295 C.3       1 <0>        -0.1442
     41 H6         -0.4632    3.3786    0.4767 H         1 <0>         0.0637
     42 H7         -1.9803    2.9477   -0.3485 H         1 <0>         0.0626
     43 H8         -1.8048    2.6592    1.3991 H         1 <0>         0.0544
     44 H9          0.5225    0.3105   -1.3024 H         1 <0>         0.0633
     45 H10        -0.6331    1.4918   -1.9780 H         1 <0>         0.0699
     46 H11         1.7061    2.3894   -1.9470 H         1 <0>         0.0642
     47 H12         0.6080    3.3452   -0.9316 H         1 <0>         0.0745
     48 H13        -0.2238   -0.0526    3.1897 H         1 <0>         0.0846
     49 H14        -1.0467    1.5109    2.8794 H         1 <0>         0.0941
     50 H15        -3.4040   -1.5646    1.7530 H         1 <0>         0.1317
     51 H16        -1.3210    0.4771    4.1798 H         1 <0>         0.1925
     52 H17        -4.0839   -2.8022    3.8598 H         1 <0>         0.1750
     53 H18        -4.0475   -3.2287    7.9553 H         1 <0>         0.1489
     54 H19        -4.0155   -3.4560   10.4290 H         1 <0>         0.1419
     55 H20        -2.6116   -1.8896   11.7516 H         1 <0>         0.1406
     56 H21        -1.2975   -0.1649   10.5866 H         1 <0>         0.1630
     57 H22        -3.8473    0.1960   -0.0078 H         1 <0>         0.3763
     58 H23         1.6331    1.6409    3.5475 H         1 <0>         0.0699
     59 H24         2.7405    0.8297    2.4129 H         1 <0>         0.0707
     60 H25         2.6243    3.8309    2.9538 H         1 <0>         0.0846
     61 H26         3.8681    2.7149    3.5617 H         1 <0>         0.0756
     62 H27         3.5436    4.1223   -1.7517 H         1 <0>         0.1321
     63 H28         5.4579    2.6560   -2.0396 H         1 <0>         0.1445
     64 H29         4.3678    0.2186    2.3842 H         1 <0>         0.0579
     65 H30         6.0929    0.5231    2.0685 H         1 <0>         0.0749
     66 H31         5.2010    1.5570    3.2105 H         1 <0>         0.0737
     67 H32         1.6504    4.5376    1.4469 H         1 <0>         0.0703
     68 H33         2.9366    5.4499    0.6213 H         1 <0>         0.0624
     69 H34         1.5629    4.8071   -0.3103 H         1 <0>         0.0693
@<TRIPOS>BOND
     1    1    2 1
     2    1   41 1
     3    1   42 1
     4    1   43 1
     5    2    9 1
     6    2   26 1
     7    2    3 1
     8    3    4 1
     9    3   44 1
    10    3   45 1
    11    4    5 1
    12    4   46 1
    13    4   47 1
    14    5    6 1
    15    5   33 1
    16    5    7 1
    17    7    8 1
    18    7    9 1
    19    7   29 1
    20    9   10 1
    21    9   11 1
    22   11   12 1
    23   11   48 1
    24   11   49 1
    25   12   13 2
    26   12   26 1
    27   13   14 1
    28   13   50 1
    29   14   19 ar
    30   14   15 ar
    31   15   16 ar
    32   15   51 1
    33   16   17 ar
    34   17   18 ar
    35   17   20 1
    36   18   19 ar
    37   19   52 1
    38   20   25 ar
    39   20   21 ar
    40   21   22 ar
    41   21   53 1
    42   22   23 ar
    43   22   54 1
    44   23   24 ar
    45   23   55 1
    46   24   25 ar
    47   24   56 1
    48   26   27 1
    49   26   28 1
    50   28   57 1
    51   29   30 1
    52   29   58 1
    53   29   59 1
    54   30   31 1
    55   30   60 1
    56   30   61 1
    57   31   32 1
    58   31   38 1
    59   31   33 1
    60   33   34 1
    61   33   40 1
    62   34   35 2
    63   34   62 1
    64   35   36 1
    65   35   63 1
    66   36   37 2
    67   36   38 am
    68   38   39 1
    69   39   64 1
    70   39   65 1
    71   39   66 1
    72   40   67 1
    73   40   68 1
    74   40   69 1
@<TRIPOS>MOLECULE
CHEMBL436784
   35    36     0     0     0
SMALL
USER_CHARGES

@<TRIPOS>ATOM
      1 C1         -0.0168    1.3901    0.0097 C.ar      1 <0>        -0.1070
      2 C2          1.1587    2.1076    0.0023 C.ar      1 <0>        -0.1082
      3 C3          2.3797    1.4418   -0.0129 C.ar      1 <0>         0.1560
      4 C4          2.4044    0.0342   -0.0207 C.ar      1 <0>        -0.0650
      5 C5          1.2051   -0.6848   -0.0132 C.ar      1 <0>        -0.1213
      6 C6          0.0021   -0.0041    0.0020 C.ar      1 <0>         0.1778
      7 N1         -1.2013   -0.7169    0.0102 N.pl3     1 <0>        -0.6164
      8 C7         -2.4780    0.0014    0.0267 C.3       1 <0>         0.0791
      9 C8         -2.9368    0.2592   -1.4099 C.3       1 <0>         0.4299
     10 F1         -3.0971   -0.9614   -2.0744 F         1 <0>        -0.1809
     11 F2         -4.1560    0.9452   -1.3941 F         1 <0>        -0.1775
     12 F3         -1.9769    1.0297   -2.0749 F         1 <0>        -0.1760
     13 C9         -1.1851   -2.1818    0.0021 C.3       1 <0>         0.0769
     14 C10        -1.1651   -2.6995    1.4417 C.3       1 <0>         0.4295
     15 F4         -2.3058   -2.2494    2.1150 F         1 <0>        -0.1814
     16 F5         -1.1495   -4.0983    1.4341 F         1 <0>        -0.1765
     17 F6         -0.0215   -2.2239    2.0925 F         1 <0>        -0.1737
     18 C11         3.6972   -0.6532   -0.0363 C.2       1 <0>        -0.0912
     19 C12         4.8286    0.0940   -0.0426 C.2       1 <0>        -0.1244
     20 C13         4.7500    1.5030   -0.0339 C.2       1 <0>         0.5356
     21 O1          5.7797    2.1555   -0.0398 O.2       1 <0>        -0.5185
     22 N2          3.5683    2.1439   -0.0201 N.am      1 <0>        -0.6201
     23 H1          3.5506    3.1137   -0.0150 H         1 <0>         0.4222
     24 C14         3.7686   -2.1584   -0.0445 C.3       1 <0>         0.5079
     25 F7          5.1082   -2.5616   -0.0590 F         1 <0>        -0.1666
     26 F8          3.1427   -2.6613    1.1011 F         1 <0>        -0.1638
     27 F9          3.1214   -2.6498   -1.1833 F         1 <0>        -0.1675
     28 H2         -0.9621    1.9121    0.0261 H         1 <0>         0.1390
     29 H3          1.1324    3.1872    0.0080 H         1 <0>         0.1469
     30 H4          1.2186   -1.7647   -0.0188 H         1 <0>         0.1357
     31 H5         -3.2259   -0.5988    0.5448 H         1 <0>         0.1320
     32 H6         -2.3532    0.9525    0.5444 H         1 <0>         0.1315
     33 H7         -2.0760   -2.5522   -0.5049 H         1 <0>         0.1328
     34 H8         -0.2962   -2.5324   -0.5224 H         1 <0>         0.1294
     35 H9          5.7935   -0.3910   -0.0540 H         1 <0>         0.1739
@<TRIPOS>BOND
     1    1    6 ar
     2    1    2 ar
     3    1   28 1
     4    2    3 ar
     5    2   29 1
     6    3   22 1
     7    3    4 ar
     8    4    5 ar
     9    4   18 1
    10    5    6 ar
    11    5   30 1
    12    6    7 1
    13    7    8 1
    14    7   13 1
    15    8    9 1
    16    8   31 1
    17    8   32 1
    18    9   10 1
    19    9   11 1
    20    9   12 1
    21   13   14 1
    22   13   33 1
    23   13   34 1
    24   14   15 1
    25   14   16 1
    26   14   17 1
    27   18   19 2
    28   18   24 1
    29   19   20 1
    30   19   35 1
    31   20   21 2
    32   20   22 am
    33   22   23 1
    34   24   25 1
    35   24   26 1
    36   24   27 1
@<TRIPOS>MOLECULE
CHEMBL436784__1
   34    35     0     0     0
SMALL
USER_CHARGES

@<TRIPOS>ATOM
      1 C1         -0.0169    1.3948    0.0097 C.ar      1 <0>        -0.1259
      2 C2          1.1396    2.1104    0.0025 C.ar      1 <0>        -0.0870
      3 C3          2.3776    1.4453   -0.0134 C.ar      1 <0>         0.1863
      4 C4          2.4039    0.0291   -0.0212 C.ar      1 <0>        -0.1313
      5 C5          1.1985   -0.6883   -0.0127 C.ar      1 <0>        -0.1259
      6 C6          0.0021   -0.0041    0.0020 C.ar      1 <0>         0.1274
      7 N1         -1.2019   -0.7135    0.0097 N.pl3     1 <0>        -0.6174
      8 C7         -2.4770    0.0077    0.0258 C.3       1 <0>         0.0868
      9 C8         -2.9346    0.2665   -1.4110 C.3       1 <0>         0.4261
     10 F1         -3.0974   -0.9538   -2.0755 F         1 <0>        -0.1862
     11 F2         -4.1523    0.9552   -1.3957 F         1 <0>        -0.1859
     12 F3         -1.9727    1.0348   -2.0756 F         1 <0>        -0.1713
     13 C9         -1.1890   -2.1784    0.0017 C.3       1 <0>         0.0849
     14 C10        -1.1707   -2.6961    1.4414 C.3       1 <0>         0.4260
     15 F4         -2.3106   -2.2435    2.1142 F         1 <0>        -0.1870
     16 F5         -1.1583   -4.0951    1.4337 F         1 <0>        -0.1851
     17 F6         -0.0263   -2.2232    2.0925 F         1 <0>        -0.1683
     18 C11         3.6481   -0.6336   -0.0371 C.ar      1 <0>        -0.1312
     19 C12         4.7822    0.1225   -0.0443 C.ar      1 <0>        -0.1469
     20 C13         4.6892    1.5196   -0.0359 C.ar      1 <0>         0.4225
     21 O1          5.8264    2.2584   -0.0437 O.3       1 <0>        -0.6908
     22 N2          3.5261    2.1328   -0.0206 N.ar      1 <0>        -0.5752
     23 C14         3.7224   -2.1388   -0.0455 C.3       1 <0>         0.5085
     24 F7          5.0626   -2.5395   -0.0610 F         1 <0>        -0.1791
     25 F8          3.0982   -2.6428    1.1007 F         1 <0>        -0.1770
     26 F9          3.0751   -2.6313   -1.1837 F         1 <0>        -0.1808
     27 H1         -0.9638    1.9141    0.0261 H         1 <0>         0.1167
     28 H2          1.1066    3.1899    0.0086 H         1 <0>         0.1306
     29 H3          1.2078   -1.7682   -0.0182 H         1 <0>         0.1122
     30 H4         -3.2264   -0.5908    0.5436 H         1 <0>         0.1204
     31 H5         -2.3501    0.9585    0.5436 H         1 <0>         0.1275
     32 H6         -2.0806   -2.5469   -0.5056 H         1 <0>         0.1210
     33 H7         -0.3008   -2.5311   -0.5225 H         1 <0>         0.1255
     34 H8          5.7508   -0.3551   -0.0561 H         1 <0>         0.1298
@<TRIPOS>BOND
     1    1    6 ar
     2    1    2 ar
     3    1   27 1
     4    2    3 ar
     5    2   28 1
     6    3   22 ar
     7    3    4 ar
     8    4    5 ar
     9    4   18 ar
    10    5    6 ar
    11    5   29 1
    12    6    7 1
    13    7    8 1
    14    7   13 1
    15    8    9 1
    16    8   30 1
    17    8   31 1
    18    9   10 1
    19    9   11 1
    20    9   12 1
    21   13   14 1
    22   13   32 1
    23   13   33 1
    24   14   15 1
    25   14   16 1
    26   14   17 1
    27   18   19 ar
    28   18   23 1
    29   19   20 ar
    30   19   34 1
    31   20   21 1
    32   20   22 ar
    33   23   24 1
    34   23   25 1
    35   23   26 1
@<TRIPOS>MOLECULE
CHEMBL78704
   65    69     0     0     0
SMALL
USER_CHARGES

@<TRIPOS>ATOM
      1 C1         -0.2614    1.6786    0.9776 C.3       1 <0>        -0.0463
      2 C2         -0.1828    0.2112    0.8908 C.1       1 <0>        -0.1606
      3 C3         -0.1202   -0.9591    0.8216 C.1       1 <0>        -0.2083
      4 C4         -0.0419   -2.4213    0.7351 C.3       1 <0>         0.2506
      5 C5          0.7003   -2.8533   -0.5605 C.3       1 <0>        -0.1447
      6 C6         -0.3955   -3.1455   -1.6153 C.3       1 <0>        -0.1160
      7 C7         -1.7154   -2.7995   -0.9262 C.3       1 <0>        -0.0779
      8 C8         -1.4206   -3.0813    0.5667 C.3       1 <0>        -0.0293
      9 C9         -2.5550   -2.4714    1.3688 C.3       1 <0>        -0.0735
     10 C10        -3.8453   -3.0783    0.8594 C.2       1 <0>        -0.1472
     11 C11        -4.0076   -3.5633   -0.3359 C.2       1 <0>        -0.0945
     12 C12        -2.9339   -3.5473   -1.3959 C.3       1 <0>        -0.0297
     13 C13        -2.6323   -4.9116   -1.9787 C.3       1 <0>        -0.1022
     14 C14        -3.8302   -5.8548   -1.8964 C.3       1 <0>        -0.1064
     15 C15        -5.1137   -5.0608   -1.8987 C.2       1 <0>        -0.0016
     16 C16        -5.9877   -5.1916   -2.8873 C.2       1 <0>        -0.2456
     17 C17        -7.2407   -4.4414   -2.9026 C.2       1 <0>         0.3894
     18 O1         -8.0284   -4.5905   -3.8135 O.2       1 <0>        -0.4636
     19 C18        -7.5545   -3.4832   -1.7818 C.3       1 <0>        -0.1693
     20 C19        -6.2492   -2.9658   -1.1783 C.3       1 <0>        -0.1025
     21 C20        -5.3650   -4.1305   -0.7311 C.3       1 <0>         0.0086
     22 C21        -6.0090   -4.8988    0.4268 C.3       1 <0>        -0.0657
     23 C22        -5.1873   -6.1238    0.7353 C.ar      1 <0>        -0.0859
     24 C23        -5.4786   -7.3252    0.1167 C.ar      1 <0>        -0.1085
     25 C24        -4.7249   -8.4489    0.3997 C.ar      1 <0>        -0.1220
     26 C25        -3.6797   -8.3712    1.3010 C.ar      1 <0>        -0.0851
     27 C26        -3.3878   -7.1696    1.9189 C.ar      1 <0>        -0.1180
     28 C27        -4.1388   -6.0449    1.6327 C.ar      1 <0>        -0.1025
     29 C28        -2.8587   -9.5965    1.6102 C.3       1 <0>        -0.1172
     30 C29        -1.3027   -4.5792    0.8833 C.3       1 <0>        -0.1376
     31 O2          0.6237   -2.9558    1.8850 O.3       1 <0>        -0.5410
     32 H1          0.7412    2.0897    1.0957 H         1 <0>         0.0820
     33 H2         -0.7108    2.0729    0.0663 H         1 <0>         0.0826
     34 H3         -0.8726    1.9596    1.8353 H         1 <0>         0.0826
     35 H4          1.3429   -2.0431   -0.9053 H         1 <0>         0.0676
     36 H5          1.2922   -3.7472   -0.3743 H         1 <0>         0.0836
     37 H6         -0.2520   -2.5049   -2.4871 H         1 <0>         0.0661
     38 H7         -0.3689   -4.1909   -1.9094 H         1 <0>         0.0776
     39 H8         -1.9050   -1.7245   -1.0643 H         1 <0>         0.0722
     40 H9         -2.4360   -2.7081    2.4280 H         1 <0>         0.0756
     41 H10        -2.6045   -1.3917    1.2368 H         1 <0>         0.0752
     42 H11        -4.6795   -3.0721    1.5448 H         1 <0>         0.1083
     43 H12        -3.3484   -2.9469   -2.2313 H         1 <0>         0.0664
     44 H13        -2.3767   -4.7816   -3.0401 H         1 <0>         0.0609
     45 H14        -1.7789   -5.3704   -1.4927 H         1 <0>         0.0765
     46 H15        -3.8212   -6.5262   -2.7550 H         1 <0>         0.0723
     47 H16        -3.7668   -6.4411   -0.9808 H         1 <0>         0.1006
     48 H17        -5.7681   -5.8708   -3.6988 H         1 <0>         0.1300
     49 H18        -8.1243   -2.6393   -2.1843 H         1 <0>         0.0961
     50 H19        -8.1556   -3.9804   -1.0235 H         1 <0>         0.1035
     51 H20        -5.7129   -2.3752   -1.9256 H         1 <0>         0.0737
     52 H21        -6.4694   -2.3289   -0.3192 H         1 <0>         0.0815
     53 H22        -6.0520   -4.2587    1.3081 H         1 <0>         0.0849
     54 H23        -7.0185   -5.1995    0.1465 H         1 <0>         0.0793
     55 H24        -6.2952   -7.3859   -0.5875 H         1 <0>         0.1182
     56 H25        -4.9530   -9.3877   -0.0831 H         1 <0>         0.1196
     57 H26        -2.5714   -7.1089    2.6233 H         1 <0>         0.1202
     58 H27        -3.9084   -5.1052    2.1127 H         1 <0>         0.1255
     59 H28        -2.0180   -9.6545    0.9189 H         1 <0>         0.0700
     60 H29        -2.4850   -9.5350    2.6323 H         1 <0>         0.0659
     61 H30        -3.4792  -10.4862    1.5031 H         1 <0>         0.0652
     62 H31        -0.9823   -4.7080    1.9171 H         1 <0>         0.0639
     63 H32        -2.2715   -5.0581    0.7407 H         1 <0>         0.0760
     64 H33        -0.5706   -5.0349    0.2166 H         1 <0>         0.0527
     65 H34         1.5258   -2.6286    2.0049 H         1 <0>         0.3776
@<TRIPOS>BOND
     1    1    2 1
     2    1   32 1
     3    1   33 1
     4    1   34 1
     5    2    3 3
     6    3    4 1
     7    4    8 1
     8    4    5 1
     9    4   31 1
    10    5    6 1
    11    5   35 1
    12    5   36 1
    13    6    7 1
    14    6   37 1
    15    6   38 1
    16    7   12 1
    17    7    8 1
    18    7   39 1
    19    8    9 1
    20    8   30 1
    21    9   10 1
    22    9   40 1
    23    9   41 1
    24   10   11 2
    25   10   42 1
    26   11   21 1
    27   11   12 1
    28   12   13 1
    29   12   43 1
    30   13   14 1
    31   13   44 1
    32   13   45 1
    33   14   15 1
    34   14   46 1
    35   14   47 1
    36   15   21 1
    37   15   16 2
    38   16   17 1
    39   16   48 1
    40   17   18 2
    41   17   19 1
    42   19   20 1
    43   19   49 1
    44   19   50 1
    45   20   21 1
    46   20   51 1
    47   20   52 1
    48   21   22 1
    49   22   23 1
    50   22   53 1
    51   22   54 1
    52   23   28 ar
    53   23   24 ar
    54   24   25 ar
    55   24   55 1
    56   25   26 ar
    57   25   56 1
    58   26   27 ar
    59   26   29 1
    60   27   28 ar
    61   27   57 1
    62   28   58 1
    63   29   59 1
    64   29   60 1
    65   29   61 1
    66   30   62 1
    67   30   63 1
    68   30   64 1
    69   31   65 1
@<TRIPOS>MOLECULE
CHEMBL78704__1
   65    69     0     0     0
SMALL
USER_CHARGES

@<TRIPOS>ATOM
      1 C1          0.2633    1.1609   -1.6630 C.3       1 <0>        -0.0465
      2 C2          0.2288   -0.2878   -1.4046 C.1       1 <0>        -0.1624
      3 C3          0.2013   -1.4433   -1.1985 C.1       1 <0>        -0.2129
      4 C4          0.1668   -2.8920   -0.9401 C.3       1 <0>         0.2569
      5 C5          0.6854   -3.6684   -2.1744 C.3       1 <0>        -0.1447
      6 C6         -0.5098   -4.5082   -2.6989 C.3       1 <0>        -0.1130
      7 C7         -1.7291   -3.7425   -2.1703 C.3       1 <0>        -0.0829
      8 C8         -1.2743   -3.3588   -0.7389 C.3       1 <0>        -0.0403
      9 C9         -2.2410   -2.2886   -0.2538 C.3       1 <0>        -0.0719
     10 C10        -3.6192   -2.9079   -0.2937 C.2       1 <0>        -0.1523
     11 C11        -3.9445   -3.8983   -1.0751 C.2       1 <0>        -0.1024
     12 C12        -3.0103   -4.5389   -2.0770 C.3       1 <0>        -0.0331
     13 C13        -3.6767   -4.6043   -3.4530 C.3       1 <0>        -0.1083
     14 C14        -5.0150   -5.3446   -3.3732 C.3       1 <0>        -0.0983
     15 C15        -5.8902   -4.6076   -2.3743 C.2       1 <0>        -0.0183
     16 C16        -7.0702   -4.1366   -2.7668 C.2       1 <0>        -0.2318
     17 C17        -7.8784   -3.3735   -1.8032 C.2       1 <0>         0.3914
     18 O1         -9.0889   -3.3254   -1.8705 O.2       1 <0>        -0.4547
     19 C18        -7.1000   -2.6505   -0.7189 C.3       1 <0>        -0.1648
     20 C19        -6.2110   -3.6801   -0.0230 C.3       1 <0>        -0.1280
     21 C20        -5.3513   -4.4525   -0.9872 C.3       1 <0>         0.0157
     22 C21        -5.2252   -5.8632   -0.4087 C.3       1 <0>        -0.0725
     23 C22        -6.5822   -6.5182   -0.3816 C.ar      1 <0>        -0.0908
     24 C23        -7.3460   -6.4784    0.7698 C.ar      1 <0>        -0.1139
     25 C24        -8.5907   -7.0792    0.7947 C.ar      1 <0>        -0.1187
     26 C25        -9.0718   -7.7194   -0.3321 C.ar      1 <0>        -0.0845
     27 C26        -8.3084   -7.7583   -1.4839 C.ar      1 <0>        -0.1167
     28 C27        -7.0655   -7.1539   -1.5100 C.ar      1 <0>        -0.1081
     29 C28       -10.4284   -8.3752   -0.3047 C.3       1 <0>        -0.1170
     30 C29        -1.3129   -4.5827    0.1784 C.3       1 <0>        -0.1310
     31 O2          0.9535   -3.2070    0.2105 O.3       1 <0>        -0.5403
     32 H1          1.2958    1.4803   -1.8045 H         1 <0>         0.0820
     33 H2         -0.3122    1.3835   -2.5616 H         1 <0>         0.0824
     34 H3         -0.1682    1.6917   -0.8144 H         1 <0>         0.0824
     35 H4          1.0177   -2.9704   -2.9428 H         1 <0>         0.0722
     36 H5          1.5057   -4.3254   -1.8854 H         1 <0>         0.0813
     37 H6         -0.5138   -4.5341   -3.7886 H         1 <0>         0.0713
     38 H7         -0.4811   -5.5176   -2.2885 H         1 <0>         0.0752
     39 H8         -1.8925   -2.8464   -2.7690 H         1 <0>         0.0775
     40 H9         -1.9925   -1.9949    0.7661 H         1 <0>         0.0748
     41 H10        -2.2013   -1.4220   -0.9137 H         1 <0>         0.0784
     42 H11        -4.3773   -2.5065    0.3625 H         1 <0>         0.1207
     43 H12        -2.7793   -5.5543   -1.7550 H         1 <0>         0.0847
     44 H13        -3.8481   -3.5913   -3.8172 H         1 <0>         0.0670
     45 H14        -3.0180   -5.1274   -4.1462 H         1 <0>         0.0735
     46 H15        -5.4942   -5.3485   -4.3522 H         1 <0>         0.0802
     47 H16        -4.8516   -6.3684   -3.0367 H         1 <0>         0.0837
     48 H17        -7.4272   -4.3103   -3.7712 H         1 <0>         0.1356
     49 H18        -6.4829   -1.8703   -1.1646 H         1 <0>         0.0972
     50 H19        -7.7902   -2.2110    0.0012 H         1 <0>         0.0907
     51 H20        -5.5661   -3.1643    0.6884 H         1 <0>         0.0932
     52 H21        -6.8441   -4.3798    0.5227 H         1 <0>         0.0859
     53 H22        -4.5501   -6.4517   -1.0300 H         1 <0>         0.0796
     54 H23        -4.8290   -5.8061    0.6051 H         1 <0>         0.0802
     55 H24        -6.9701   -5.9783    1.6502 H         1 <0>         0.1215
     56 H25        -9.1871   -7.0488    1.6946 H         1 <0>         0.1205
     57 H26        -8.6841   -8.2588   -2.3641 H         1 <0>         0.1198
     58 H27        -6.4706   -7.1811   -2.4110 H         1 <0>         0.1205
     59 H28       -11.1863   -7.6551   -0.6130 H         1 <0>         0.0710
     60 H29       -10.4351   -9.2247   -0.9876 H         1 <0>         0.0659
     61 H30       -10.6448   -8.7201    0.7064 H         1 <0>         0.0659
     62 H31        -0.9078   -4.3177    1.1550 H         1 <0>         0.0640
     63 H32        -2.3433   -4.9195    0.2917 H         1 <0>         0.0626
     64 H33        -0.7150   -5.3828   -0.2580 H         1 <0>         0.0567
     65 H34         1.8828   -2.9508    0.1337 H         1 <0>         0.3782
@<TRIPOS>BOND
     1    1    2 1
     2    1   32 1
     3    1   33 1
     4    1   34 1
     5    2    3 3
     6    3    4 1
     7    4    8 1
     8    4    5 1
     9    4   31 1
    10    5    6 1
    11    5   35 1
    12    5   36 1
    13    6    7 1
    14    6   37 1
    15    6   38 1
    16    7   12 1
    17    7    8 1
    18    7   39 1
    19    8    9 1
    20    8   30 1
    21    9   10 1
    22    9   40 1
    23    9   41 1
    24   10   11 2
    25   10   42 1
    26   11   21 1
    27   11   12 1
    28   12   13 1
    29   12   43 1
    30   13   14 1
    31   13   44 1
    32   13   45 1
    33   14   15 1
    34   14   46 1
    35   14   47 1
    36   15   21 1
    37   15   16 2
    38   16   17 1
    39   16   48 1
    40   17   18 2
    41   17   19 1
    42   19   20 1
    43   19   49 1
    44   19   50 1
    45   20   21 1
    46   20   51 1
    47   20   52 1
    48   21   22 1
    49   22   23 1
    50   22   53 1
    51   22   54 1
    52   23   28 ar
    53   23   24 ar
    54   24   25 ar
    55   24   55 1
    56   25   26 ar
    57   25   56 1
    58   26   27 ar
    59   26   29 1
    60   27   28 ar
    61   27   57 1
    62   28   58 1
    63   29   59 1
    64   29   60 1
    65   29   61 1
    66   30   62 1
    67   30   63 1
    68   30   64 1
    69   31   65 1
@<TRIPOS>MOLECULE
CHEMBL78704__2
   65    69     0     0     0
SMALL
USER_CHARGES

@<TRIPOS>ATOM
      1 C1         -0.3754    1.9187   -0.1573 C.3       1 <0>        -0.0459
      2 C2         -0.2542    0.4520   -0.1293 C.1       1 <0>        -0.1655
      3 C3         -0.1575   -0.7178   -0.1070 C.1       1 <0>        -0.2113
      4 C4         -0.0362   -2.1846   -0.0790 C.3       1 <0>         0.2464
      5 C5          0.6358   -2.6858   -1.3720 C.3       1 <0>        -0.1459
      6 C6         -0.3569   -3.6738   -2.0313 C.3       1 <0>        -0.1140
      7 C7         -1.2256   -4.1331   -0.8505 C.3       1 <0>        -0.0751
      8 C8         -1.4480   -2.8379   -0.0446 C.3       1 <0>        -0.0241
      9 C9         -2.3602   -1.8929   -0.8349 C.3       1 <0>        -0.0739
     10 C10        -3.5364   -2.6007   -1.4192 C.2       1 <0>        -0.1454
     11 C11        -3.5996   -3.8770   -1.6205 C.2       1 <0>        -0.0958
     12 C12        -2.4974   -4.8229   -1.2474 C.3       1 <0>        -0.0343
     13 C13        -2.9501   -5.8215   -0.1909 C.3       1 <0>        -0.1061
     14 C14        -4.4469   -6.1026   -0.2695 C.3       1 <0>        -0.1021
     15 C15        -4.9576   -5.8773   -1.6708 C.2       1 <0>        -0.0011
     16 C16        -5.4822   -6.8712   -2.3755 C.2       1 <0>        -0.2458
     17 C17        -5.9697   -6.6603   -3.7373 C.2       1 <0>         0.3885
     18 O1         -6.4665   -7.5792   -4.3544 O.2       1 <0>        -0.4632
     19 C18        -5.8540   -5.2974   -4.3733 C.3       1 <0>        -0.1709
     20 C19        -4.6582   -4.5634   -3.7578 C.3       1 <0>        -0.1007
     21 C20        -4.8509   -4.4786   -2.2436 C.3       1 <0>         0.0064
     22 C21        -6.0872   -3.6508   -1.8867 C.3       1 <0>        -0.0680
     23 C22        -6.3416   -3.7414   -0.4041 C.ar      1 <0>        -0.0853
     24 C23        -7.1267   -4.7608    0.1014 C.ar      1 <0>        -0.1079
     25 C24        -7.3600   -4.8439    1.4613 C.ar      1 <0>        -0.1216
     26 C25        -6.8079   -3.9081    2.3159 C.ar      1 <0>        -0.0850
     27 C26        -6.0221   -2.8893    1.8105 C.ar      1 <0>        -0.1192
     28 C27        -5.7852   -2.8086    0.4510 C.ar      1 <0>        -0.1042
     29 C28        -7.0632   -3.9982    3.7983 C.3       1 <0>        -0.1172
     30 C29        -1.9450   -3.1052    1.3775 C.3       1 <0>        -0.1242
     31 O2          0.7224   -2.5930    1.0611 O.3       1 <0>        -0.5420
     32 H1          0.6187    2.3650   -0.1812 H         1 <0>         0.0814
     33 H2         -0.9306    2.2205   -1.0454 H         1 <0>         0.0822
     34 H3         -0.9041    2.2566    0.7340 H         1 <0>         0.0819
     35 H4          0.8287   -1.8477   -2.0417 H         1 <0>         0.0724
     36 H5          1.5687   -3.1968   -1.1341 H         1 <0>         0.0806
     37 H6         -0.9636   -3.1670   -2.7817 H         1 <0>         0.0719
     38 H7          0.1744   -4.5183   -2.4701 H         1 <0>         0.0726
     39 H8         -0.6385   -4.8141   -0.2344 H         1 <0>         0.0792
     40 H9         -2.7157   -1.1062   -0.1695 H         1 <0>         0.0705
     41 H10        -1.7847   -1.4383   -1.6413 H         1 <0>         0.0774
     42 H11        -4.3950   -2.0058   -1.6937 H         1 <0>         0.1097
     43 H12        -2.2715   -5.4078   -2.1390 H         1 <0>         0.0702
     44 H13        -2.4067   -6.7559   -0.3312 H         1 <0>         0.0651
     45 H14        -2.7162   -5.4228    0.7962 H         1 <0>         0.0743
     46 H15        -4.6338   -7.1369    0.0190 H         1 <0>         0.0721
     47 H16        -4.9735   -5.4384    0.4158 H         1 <0>         0.0968
     48 H17        -5.5508   -7.8547   -1.9346 H         1 <0>         0.1302
     49 H18        -5.7018   -5.4072   -5.4470 H         1 <0>         0.0974
     50 H19        -6.7658   -4.7295   -4.1881 H         1 <0>         0.1032
     51 H20        -3.7416   -5.1103   -3.9788 H         1 <0>         0.0760
     52 H21        -4.5939   -3.5580   -4.1740 H         1 <0>         0.0823
     53 H22        -5.9198   -2.6099   -2.1637 H         1 <0>         0.0856
     54 H23        -6.9512   -4.0363   -2.4279 H         1 <0>         0.0797
     55 H24        -7.5580   -5.4919   -0.5663 H         1 <0>         0.1181
     56 H25        -7.9740   -5.6399    1.8562 H         1 <0>         0.1195
     57 H26        -5.5910   -2.1579    2.4781 H         1 <0>         0.1188
     58 H27        -5.1682   -2.0148    0.0565 H         1 <0>         0.1250
     59 H28        -6.2905   -4.6104    4.2635 H         1 <0>         0.0702
     60 H29        -7.0443   -2.9982    4.2317 H         1 <0>         0.0655
     61 H30        -8.0393   -4.4511    3.9721 H         1 <0>         0.0654
     62 H31        -2.0253   -2.1618    1.9176 H         1 <0>         0.0528
     63 H32        -2.9230   -3.5847    1.3365 H         1 <0>         0.0629
     64 H33        -1.2408   -3.7593    1.8915 H         1 <0>         0.0655
     65 H34         1.6179   -2.2291    1.0886 H         1 <0>         0.3780
@<TRIPOS>BOND
     1    1    2 1
     2    1   32 1
     3    1   33 1
     4    1   34 1
     5    2    3 3
     6    3    4 1
     7    4    8 1
     8    4    5 1
     9    4   31 1
    10    5    6 1
    11    5   35 1
    12    5   36 1
    13    6    7 1
    14    6   37 1
    15    6   38 1
    16    7   12 1
    17    7    8 1
    18    7   39 1
    19    8    9 1
    20    8   30 1
    21    9   10 1
    22    9   40 1
    23    9   41 1
    24   10   11 2
    25   10   42 1
    26   11   21 1
    27   11   12 1
    28   12   13 1
    29   12   43 1
    30   13   14 1
    31   13   44 1
    32   13   45 1
    33   14   15 1
    34   14   46 1
    35   14   47 1
    36   15   21 1
    37   15   16 2
    38   16   17 1
    39   16   48 1
    40   17   18 2
    41   17   19 1
    42   19   20 1
    43   19   49 1
    44   19   50 1
    45   20   21 1
    46   20   51 1
    47   20   52 1
    48   21   22 1
    49   22   23 1
    50   22   53 1
    51   22   54 1
    52   23   28 ar
    53   23   24 ar
    54   24   25 ar
    55   24   55 1
    56   25   26 ar
    57   25   56 1
    58   26   27 ar
    59   26   29 1
    60   27   28 ar
    61   27   57 1
    62   28   58 1
    63   29   59 1
    64   29   60 1
    65   29   61 1
    66   30   62 1
    67   30   63 1
    68   30   64 1
    69   31   65 1
@<TRIPOS>MOLECULE
CHEMBL78704__3
   65    69     0     0     0
SMALL
USER_CHARGES

@<TRIPOS>ATOM
      1 C1         -0.7495    2.5160   -0.8922 C.3       1 <0>        -0.0460
      2 C2         -0.4459    1.0788   -0.7982 C.1       1 <0>        -0.1650
      3 C3         -0.2038   -0.0676   -0.7233 C.1       1 <0>        -0.2117
      4 C4          0.0998   -1.5048   -0.6294 C.3       1 <0>         0.2486
      5 C5          0.6932   -2.0083   -1.9585 C.3       1 <0>        -0.1477
      6 C6         -0.2459   -3.1265   -2.4672 C.3       1 <0>        -0.1147
      7 C7         -0.9526   -3.6098   -1.1880 C.3       1 <0>        -0.0731
      8 C8         -1.2066   -2.3122   -0.4028 C.3       1 <0>        -0.0230
      9 C9         -2.3309   -1.5194   -1.0787 C.3       1 <0>        -0.0734
     10 C10        -3.5386   -2.3815   -1.2782 C.2       1 <0>        -0.1406
     11 C11        -3.4664   -3.6651   -1.4589 C.2       1 <0>        -0.1023
     12 C12        -2.1767   -4.4285   -1.4545 C.3       1 <0>        -0.0359
     13 C13        -2.0506   -5.2236   -2.7564 C.3       1 <0>        -0.1072
     14 C14        -3.2395   -6.1804   -2.8829 C.3       1 <0>        -0.0975
     15 C15        -4.5281   -5.3821   -2.8369 C.2       1 <0>        -0.0170
     16 C16        -5.4110   -5.5485   -3.8191 C.2       1 <0>        -0.2379
     17 C17        -6.6667   -4.7910   -3.8220 C.2       1 <0>         0.3887
     18 O1         -7.3213   -4.6533   -4.8342 O.2       1 <0>        -0.4572
     19 C18        -7.1104   -4.1885   -2.5043 C.3       1 <0>        -0.1678
     20 C19        -5.9003   -3.4829   -1.8902 C.3       1 <0>        -0.1241
     21 C20        -4.7499   -4.4498   -1.6807 C.3       1 <0>         0.0161
     22 C21        -5.0437   -5.2779   -0.4281 C.3       1 <0>        -0.0666
     23 C22        -5.3428   -4.3553    0.7253 C.ar      1 <0>        -0.0826
     24 C23        -4.3392   -4.0068    1.6098 C.ar      1 <0>        -0.1031
     25 C24        -4.6135   -3.1605    2.6678 C.ar      1 <0>        -0.1169
     26 C25        -5.8912   -2.6624    2.8411 C.ar      1 <0>        -0.0850
     27 C26        -6.8946   -3.0101    1.9561 C.ar      1 <0>        -0.1208
     28 C27        -6.6193   -3.8530    0.8956 C.ar      1 <0>        -0.1143
     29 C28        -6.1905   -1.7406    3.9952 C.3       1 <0>        -0.1173
     30 C29        -1.4790   -2.5752    1.0796 C.3       1 <0>        -0.1394
     31 O2          1.0164   -1.7437    0.4406 O.3       1 <0>        -0.5419
     32 H1          0.1740    3.0728   -1.0511 H         1 <0>         0.0812
     33 H2         -1.4273    2.6904   -1.7278 H         1 <0>         0.0822
     34 H3         -1.2200    2.8492    0.0329 H         1 <0>         0.0823
     35 H4          0.7308   -1.1944   -2.6825 H         1 <0>         0.0718
     36 H5          1.6938   -2.4077   -1.7930 H         1 <0>         0.0807
     37 H6         -0.9692   -2.7268   -3.1778 H         1 <0>         0.0711
     38 H7          0.3292   -3.9357   -2.9172 H         1 <0>         0.0739
     39 H8         -0.2497   -4.2143   -0.6148 H         1 <0>         0.0784
     40 H9         -2.5969   -0.6680   -0.4522 H         1 <0>         0.0701
     41 H10        -1.9838   -1.1578   -2.0466 H         1 <0>         0.0756
     42 H11        -4.5127   -1.9152   -1.2711 H         1 <0>         0.1124
     43 H12        -2.2472   -5.1645   -0.6536 H         1 <0>         0.0722
     44 H13        -2.0447   -4.5369   -3.6029 H         1 <0>         0.0699
     45 H14        -1.1229   -5.7956   -2.7450 H         1 <0>         0.0745
     46 H15        -3.1766   -6.7163   -3.8299 H         1 <0>         0.0800
     47 H16        -3.2228   -6.8930   -2.0582 H         1 <0>         0.0848
     48 H17        -5.2013   -6.2443   -4.6180 H         1 <0>         0.1346
     49 H18        -7.9103   -3.4685   -2.6773 H         1 <0>         0.0939
     50 H19        -7.4583   -4.9760   -1.8358 H         1 <0>         0.0998
     51 H20        -5.5775   -2.6824   -2.5559 H         1 <0>         0.0734
     52 H21        -6.1861   -3.0541   -0.9297 H         1 <0>         0.1000
     53 H22        -5.9044   -5.9211   -0.6115 H         1 <0>         0.0782
     54 H23        -4.1761   -5.8919   -0.1868 H         1 <0>         0.0788
     55 H24        -3.3409   -4.3960    1.4744 H         1 <0>         0.1252
     56 H25        -3.8296   -2.8888    3.3592 H         1 <0>         0.1198
     57 H26        -7.8930   -2.6212    2.0917 H         1 <0>         0.1202
     58 H27        -7.4024   -4.1217    0.2021 H         1 <0>         0.1219
     59 H28        -6.0262   -0.7079    3.6874 H         1 <0>         0.0698
     60 H29        -7.2287   -1.8675    4.3018 H         1 <0>         0.0657
     61 H30        -5.5330   -1.9796    4.8310 H         1 <0>         0.0658
     62 H31        -1.4532   -1.6327    1.6266 H         1 <0>         0.0538
     63 H32        -2.4612   -3.0341    1.1927 H         1 <0>         0.0749
     64 H33        -0.7167   -3.2461    1.4757 H         1 <0>         0.0618
     65 H34         1.8580   -1.2763    0.3492 H         1 <0>         0.3778
@<TRIPOS>BOND
     1    1    2 1
     2    1   32 1
     3    1   33 1
     4    1   34 1
     5    2    3 3
     6    3    4 1
     7    4    8 1
     8    4    5 1
     9    4   31 1
    10    5    6 1
    11    5   35 1
    12    5   36 1
    13    6    7 1
    14    6   37 1
    15    6   38 1
    16    7   12 1
    17    7    8 1
    18    7   39 1
    19    8    9 1
    20    8   30 1
    21    9   10 1
    22    9   40 1
    23    9   41 1
    24   10   11 2
    25   10   42 1
    26   11   21 1
    27   11   12 1
    28   12   13 1
    29   12   43 1
    30   13   14 1
    31   13   44 1
    32   13   45 1
    33   14   15 1
    34   14   46 1
    35   14   47 1
    36   15   21 1
    37   15   16 2
    38   16   17 1
    39   16   48 1
    40   17   18 2
    41   17   19 1
    42   19   20 1
    43   19   49 1
    44   19   50 1
    45   20   21 1
    46   20   51 1
    47   20   52 1
    48   21   22 1
    49   22   23 1
    50   22   53 1
    51   22   54 1
    52   23   28 ar
    53   23   24 ar
    54   24   25 ar
    55   24   55 1
    56   25   26 ar
    57   25   56 1
    58   26   27 ar
    59   26   29 1
    60   27   28 ar
    61   27   57 1
    62   28   58 1
    63   29   59 1
    64   29   60 1
    65   29   61 1
    66   30   62 1
    67   30   63 1
    68   30   64 1
    69   31   65 1
@<TRIPOS>MOLECULE
CHEMBL307632
   49    52     0     0     0
SMALL
USER_CHARGES

@<TRIPOS>ATOM
      1 C1         -0.0187    1.5258    0.0104 C.3       1 <0>        -0.1509
      2 C2          0.0021   -0.0041    0.0020 C.3       1 <0>        -0.0576
      3 C3         -1.4161   -0.5356    0.0664 C.3       1 <0>        -0.0917
      4 C4         -2.0835    0.0905    1.3026 C.3       1 <0>        -0.1235
      5 C5         -1.3044   -0.2251    2.5746 C.3       1 <0>        -0.0649
      6 C6          0.1683    0.2020    2.4543 C.3       1 <0>        -0.0784
      7 C7          0.7521   -0.5253    1.2581 C.3       1 <0>        -0.0796
      8 C8          2.2063   -0.1858    0.9124 C.3       1 <0>        -0.1137
      9 C9          2.3054   -0.5675   -0.5899 C.3       1 <0>        -0.1574
     10 C10         0.8640   -0.5011   -1.1535 C.3       1 <0>         0.1102
     11 O1          0.4345   -1.7991   -1.5690 O.3       1 <0>        -0.5608
     12 C11         0.9151   -0.1802    3.7317 C.3       1 <0>        -0.1142
     13 C12         0.2772    0.5221    4.9344 C.3       1 <0>        -0.1157
     14 C13        -1.1870    0.0984    5.0425 C.3       1 <0>        -0.0710
     15 C14        -1.9266    0.4983    3.7667 C.3       1 <0>        -0.0355
     16 C15        -3.3900    0.2040    3.8771 C.2       1 <0>        -0.0539
     17 C16        -4.0141    0.1073    5.0473 C.2       1 <0>        -0.2363
     18 C17        -3.2805    0.2740    6.3059 C.2       1 <0>         0.3849
     19 O2         -3.8001    0.0110    7.3703 O.2       1 <0>        -0.4585
     20 C18        -1.8544    0.7837    6.2397 C.3       1 <0>        -0.1654
     21 C19        -1.7663    2.0060    3.5613 C.3       1 <0>        -0.1521
     22 H1          1.0039    1.9031    0.0027 H         1 <0>         0.0572
     23 H2         -0.5459    1.8868   -0.8726 H         1 <0>         0.0547
     24 H3         -0.5289    1.8773    0.9072 H         1 <0>         0.0733
     25 H4         -1.9604   -0.2498   -0.8336 H         1 <0>         0.0615
     26 H5         -1.4012   -1.6212    0.1629 H         1 <0>         0.0704
     27 H6         -2.1316    1.1717    1.1729 H         1 <0>         0.0701
     28 H7         -3.0961   -0.3015    1.3981 H         1 <0>         0.0627
     29 H8         -1.3393   -1.2996    2.7545 H         1 <0>         0.0706
     30 H9          0.2258    1.2784    2.2928 H         1 <0>         0.0864
     31 H10         0.6153   -1.6013    1.3656 H         1 <0>         0.0786
     32 H11         2.3980    0.8779    1.0534 H         1 <0>         0.0689
     33 H12         2.8943   -0.7851    1.5087 H         1 <0>         0.0659
     34 H13         2.9454    0.1419   -1.1146 H         1 <0>         0.0667
     35 H14         2.7017   -1.5776   -0.6939 H         1 <0>         0.0723
     36 H15         0.8167    0.1984   -1.9881 H         1 <0>         0.0564
     37 H16         0.9467   -2.1669   -2.3021 H         1 <0>         0.3758
     38 H17         0.8630   -1.2597    3.8729 H         1 <0>         0.0624
     39 H18         1.9585    0.1234    3.6462 H         1 <0>         0.0662
     40 H19         0.8065    0.2395    5.8443 H         1 <0>         0.0675
     41 H20         0.3349    1.6021    4.7985 H         1 <0>         0.0710
     42 H21        -1.2431   -0.9831    5.1666 H         1 <0>         0.0767
     43 H22        -3.9613    0.0651    2.9711 H         1 <0>         0.1255
     44 H23        -5.0745   -0.0961    5.0710 H         1 <0>         0.1319
     45 H24        -1.3250    0.5272    7.1573 H         1 <0>         0.0935
     46 H25        -1.8522    1.8645    6.0979 H         1 <0>         0.1042
     47 H26        -2.2715    2.3032    2.6423 H         1 <0>         0.0632
     48 H27        -2.2064    2.5365    4.4057 H         1 <0>         0.0587
     49 H28        -0.7069    2.2523    3.4896 H         1 <0>         0.0734
@<TRIPOS>BOND
     1    1    2 1
     2    1   22 1
     3    1   23 1
     4    1   24 1
     5    2    7 1
     6    2   10 1
     7    2    3 1
     8    3    4 1
     9    3   25 1
    10    3   26 1
    11    4    5 1
    12    4   27 1
    13    4   28 1
    14    5   15 1
    15    5    6 1
    16    5   29 1
    17    6    7 1
    18    6   12 1
    19    6   30 1
    20    7    8 1
    21    7   31 1
    22    8    9 1
    23    8   32 1
    24    8   33 1
    25    9   10 1
    26    9   34 1
    27    9   35 1
    28   10   11 1
    29   10   36 1
    30   11   37 1
    31   12   13 1
    32   12   38 1
    33   12   39 1
    34   13   14 1
    35   13   40 1
    36   13   41 1
    37   14   20 1
    38   14   15 1
    39   14   42 1
    40   15   16 1
    41   15   21 1
    42   16   17 2
    43   16   43 1
    44   17   18 1
    45   17   44 1
    46   18   19 2
    47   18   20 1
    48   20   45 1
    49   20   46 1
    50   21   47 1
    51   21   48 1
    52   21   49 1
@<TRIPOS>MOLECULE
CHEMBL218400
   40    42     0     0     0
SMALL
USER_CHARGES

@<TRIPOS>ATOM
      1 C1         -0.0187    1.5258    0.0104 C.3       1 <0>        -0.1445
      2 C2          0.0021   -0.0041    0.0020 C.3       1 <0>         0.2176
      3 C3          0.7421   -0.5109    1.2415 C.3       1 <0>        -0.1472
      4 S1         -0.0183    0.1940    2.7300 S.3       1 <0>        -0.0470
      5 C4          0.9335   -0.4760    4.0529 C.ar      1 <0>        -0.0814
      6 C5          1.9947   -1.3320    3.7832 C.ar      1 <0>        -0.1211
      7 C6          2.7391   -1.8558    4.8215 C.ar      1 <0>        -0.0754
      8 C7          2.4294   -1.5298    6.1304 C.ar      1 <0>        -0.0391
      9 C8          1.3724   -0.6776    6.4029 C.ar      1 <0>        -0.0109
     10 C9          0.6280   -0.1451    5.3671 C.ar      1 <0>        -0.0811
     11 Cl1         0.9865   -0.2721    8.0462 Cl        1 <0>        -0.0376
     12 Cl2         3.3674   -2.1909    7.4330 Cl        1 <0>        -0.0423
     13 C10         0.7074   -0.4901   -1.2379 C.2       1 <0>         0.0705
     14 C11         2.0243   -0.7341   -1.3297 C.2       1 <0>        -0.1840
     15 C12         2.2819   -1.1851   -2.6994 C.ar      1 <0>        -0.0720
     16 C13         3.4286   -1.5802   -3.3913 C.ar      1 <0>        -0.0556
     17 C14         3.3343   -1.9559   -4.7024 C.ar      1 <0>        -0.0238
     18 C15         2.1061   -1.9476   -5.3517 C.ar      1 <0>        -0.1572
     19 C16         0.9630   -1.5613   -4.6873 C.ar      1 <0>        -0.0565
     20 C17         1.0362   -1.1752   -3.3527 C.ar      1 <0>         0.0976
     21 N1          0.0996   -0.7536   -2.4350 N.pl3     1 <0>        -0.5700
     22 H1         -0.8491   -0.6557   -2.6119 H         1 <0>         0.4253
     23 C18         2.0237   -2.3649   -6.7974 C.3       1 <0>         0.5121
     24 F1          0.6972   -2.2768   -7.2333 F         1 <0>        -0.1761
     25 F2          2.8263   -1.5212   -7.5728 F         1 <0>        -0.1679
     26 F3          2.4709   -3.6840   -6.9283 F         1 <0>        -0.1680
     27 Cl3         4.7601   -2.4465   -5.5627 Cl        1 <0>        -0.0449
     28 O1         -1.3386   -0.4987    0.0122 O.3       1 <0>        -0.5411
     29 H2          1.0039    1.9031    0.0027 H         1 <0>         0.0843
     30 H3         -0.5459    1.8868   -0.8726 H         1 <0>         0.0719
     31 H4         -0.5289    1.8773    0.9072 H         1 <0>         0.0852
     32 H5          0.6803   -1.5984    1.2822 H         1 <0>         0.1008
     33 H6          1.7879   -0.2080    1.1895 H         1 <0>         0.1092
     34 H7          2.2368   -1.5875    2.7622 H         1 <0>         0.1375
     35 H8          3.5637   -2.5209    4.6120 H         1 <0>         0.1474
     36 H9         -0.1930    0.5236    5.5794 H         1 <0>         0.1488
     37 H10         2.7553   -0.6193   -0.5430 H         1 <0>         0.1563
     38 H11         4.3866   -1.5887   -2.8926 H         1 <0>         0.1476
     39 H12         0.0130   -1.5579   -5.2008 H         1 <0>         0.1484
     40 H13        -1.4018   -1.4636    0.0076 H         1 <0>         0.3841
@<TRIPOS>BOND
     1    1    2 1
     2    1   29 1
     3    1   30 1
     4    1   31 1
     5    2    3 1
     6    2   13 1
     7    2   28 1
     8    3    4 1
     9    3   32 1
    10    3   33 1
    11    4    5 1
    12    5   10 ar
    13    5    6 ar
    14    6    7 ar
    15    6   34 1
    16    7    8 ar
    17    7   35 1
    18    8    9 ar
    19    8   12 1
    20    9   10 ar
    21    9   11 1
    22   10   36 1
    23   13   21 1
    24   13   14 2
    25   14   15 1
    26   14   37 1
    27   15   20 ar
    28   15   16 ar
    29   16   17 ar
    30   16   38 1
    31   17   18 ar
    32   17   27 1
    33   18   19 ar
    34   18   23 1
    35   19   20 ar
    36   19   39 1
    37   20   21 1
    38   21   22 1
    39   23   24 1
    40   23   25 1
    41   23   26 1
    42   28   40 1
@<TRIPOS>MOLECULE
CHEMBL218400__1
   40    42     0     0     0
SMALL
USER_CHARGES

@<TRIPOS>ATOM
      1 C1         -0.0187    1.5258    0.0104 C.3       1 <0>        -0.1445
      2 C2          0.0021   -0.0041    0.0020 C.3       1 <0>         0.2177
      3 C3          0.7421   -0.5109    1.2415 C.3       1 <0>        -0.1472
      4 S1          2.3946    0.2345    1.3062 S.3       1 <0>        -0.0469
      5 C4          3.1093   -0.4394    2.7689 C.ar      1 <0>        -0.0815
      6 C5          2.3861   -1.3342    3.5486 C.ar      1 <0>        -0.1211
      7 C6          2.9482   -1.8610    4.6945 C.ar      1 <0>        -0.0754
      8 C7          4.2307   -1.4987    5.0678 C.ar      1 <0>        -0.0391
      9 C8          4.9541   -0.6070    4.2935 C.ar      1 <0>        -0.0109
     10 C9          4.3988   -0.0817    3.1419 C.ar      1 <0>        -0.0811
     11 Cl1         6.5621   -0.1542    4.7658 Cl        1 <0>        -0.0376
     12 Cl2         4.9337   -2.1628    6.5095 Cl        1 <0>        -0.0423
     13 C10        -1.4117   -0.5257    0.0127 C.2       1 <0>         0.0704
     14 C11        -2.1262   -0.7929    1.1173 C.2       1 <0>        -0.1839
     15 C12        -3.4365   -1.2748    0.6738 C.ar      1 <0>        -0.0720
     16 C13        -4.5886   -1.7020    1.3372 C.ar      1 <0>        -0.0556
     17 C14        -5.6785   -2.1018    0.6151 C.ar      1 <0>        -0.0238
     18 C15        -5.6485   -2.0862   -0.7738 C.ar      1 <0>        -0.1571
     19 C16        -4.5220   -1.6684   -1.4473 C.ar      1 <0>        -0.0566
     20 C17        -3.4016   -1.2574   -0.7322 C.ar      1 <0>         0.0976
     21 N1         -2.1593   -0.7915   -1.1020 N.pl3     1 <0>        -0.5701
     22 H1         -1.8584   -0.6721   -2.0163 H         1 <0>         0.4253
     23 C18        -6.8604   -2.5314   -1.5512 C.3       1 <0>         0.5121
     24 F1         -6.5983   -2.4301   -2.9217 F         1 <0>        -0.1760
     25 F2         -7.1581   -3.8601   -1.2303 F         1 <0>        -0.1680
     26 F3         -7.9497   -1.7171   -1.2233 F         1 <0>        -0.1678
     27 Cl3        -7.1106   -2.6334    1.4399 Cl        1 <0>        -0.0449
     28 O1          0.6709   -0.4649   -1.1737 O.3       1 <0>        -0.5411
     29 H2          1.0039    1.9031    0.0027 H         1 <0>         0.0852
     30 H3         -0.5459    1.8868   -0.8726 H         1 <0>         0.0720
     31 H4         -0.5289    1.8773    0.9072 H         1 <0>         0.0843
     32 H5          0.1838   -0.2350    2.1361 H         1 <0>         0.1092
     33 H6          0.8346   -1.5958    1.1912 H         1 <0>         0.1007
     34 H7          1.3849   -1.6171    3.2586 H         1 <0>         0.1375
     35 H8          2.3863   -2.5563    5.3004 H         1 <0>         0.1474
     36 H9          4.9649    0.6098    2.5354 H         1 <0>         0.1488
     37 H10        -1.7972   -0.6752    2.1392 H         1 <0>         0.1563
     38 H11        -4.6185   -1.7169    2.4167 H         1 <0>         0.1476
     39 H12        -4.5083   -1.6603   -2.5272 H         1 <0>         0.1484
     40 H13         0.7216   -1.4279   -1.2455 H         1 <0>         0.3841
@<TRIPOS>BOND
     1    1    2 1
     2    1   29 1
     3    1   30 1
     4    1   31 1
     5    2    3 1
     6    2   13 1
     7    2   28 1
     8    3    4 1
     9    3   32 1
    10    3   33 1
    11    4    5 1
    12    5   10 ar
    13    5    6 ar
    14    6    7 ar
    15    6   34 1
    16    7    8 ar
    17    7   35 1
    18    8    9 ar
    19    8   12 1
    20    9   10 ar
    21    9   11 1
    22   10   36 1
    23   13   21 1
    24   13   14 2
    25   14   15 1
    26   14   37 1
    27   15   20 ar
    28   15   16 ar
    29   16   17 ar
    30   16   38 1
    31   17   18 ar
    32   17   27 1
    33   18   19 ar
    34   18   23 1
    35   19   20 ar
    36   19   39 1
    37   20   21 1
    38   21   22 1
    39   23   24 1
    40   23   25 1
    41   23   26 1
    42   28   40 1
@<TRIPOS>MOLECULE
CHEMBL199899
   49    51     0     0     0
SMALL
USER_CHARGES

@<TRIPOS>ATOM
      1 C1          1.0237    1.9102   -0.2458 C.3       1 <0>        -0.1391
      2 C2          0.8261    0.3949   -0.3210 C.3       1 <0>         0.1443
      3 H1          1.4460   -0.0158   -1.1179 H         1 <0>         0.0771
      4 C3         -0.6486    0.0814   -0.6026 C.3       1 <0>         0.1314
      5 N1         -0.8668   -1.3596   -0.4134 N.pl3     1 <0>        -0.6755
      6 C4         -0.4939   -1.9699    0.8704 C.3       1 <0>         0.1575
      7 H2         -1.1140   -1.5567    1.6658 H         1 <0>         0.0718
      8 C5          0.9808   -1.6565    1.1520 C.3       1 <0>         0.0956
      9 N2          1.2030   -0.2159    0.9615 N.am      1 <0>        -0.6175
     10 C6          1.7388    0.5320    1.9463 C.2       1 <0>         0.7074
     11 O1          2.0021    1.7020    1.7464 O.2       1 <0>        -0.5549
     12 N3          1.9828   -0.0170    3.1528 N.am      1 <0>        -0.6848
     13 C7          2.4323    0.7819    4.2048 C.ar      1 <0>         0.2106
     14 C8          2.0489    2.1186    4.3020 C.ar      1 <0>        -0.1769
     15 C9          2.5151    2.8747    5.3573 C.ar      1 <0>         0.1185
     16 N4          3.3133    2.3476    6.2665 N.ar      1 <0>        -0.4997
     17 C10         3.6986    1.0867    6.2094 C.ar      1 <0>         0.1202
     18 C11         3.2718    0.2624    5.1890 C.ar      1 <0>        -0.2073
     19 C12        -0.6955   -3.4848    0.7966 C.3       1 <0>        -0.1638
     20 C13        -1.4165   -2.1325   -1.4322 C.ar      1 <0>         0.2080
     21 C14        -2.7809   -2.4083   -1.4355 C.ar      1 <0>        -0.0955
     22 C15        -3.3277   -3.1723   -2.4413 C.ar      1 <0>        -0.0595
     23 C16        -2.5109   -3.6715   -3.4605 C.ar      1 <0>         0.0207
     24 C17        -1.1412   -3.3926   -3.4541 C.ar      1 <0>        -0.1307
     25 C18        -0.6018   -2.6230   -2.4481 C.ar      1 <0>        -0.0831
     26 C19        -0.2570   -3.9289   -4.5503 C.3       1 <0>         0.5033
     27 F1          1.0621   -3.5195   -4.3277 F         1 <0>        -0.1705
     28 F2         -0.3168   -5.3267   -4.5557 F         1 <0>        -0.1708
     29 F3         -0.6955   -3.4386   -5.7850 F         1 <0>        -0.1704
     30 C20        -3.0764   -4.4671   -4.5083 C.1       1 <0>         0.2284
     31 N5         -3.5249   -5.0983   -5.3396 N.1       1 <0>        -0.3744
     32 H3          2.0861    2.1337   -0.1484 H         1 <0>         0.0807
     33 H4          0.6369    2.3725   -1.1539 H         1 <0>         0.0500
     34 H5          0.4888    2.3039    0.6185 H         1 <0>         0.0707
     35 H6         -1.2798    0.6407    0.0880 H         1 <0>         0.0658
     36 H7         -0.8916    0.3566   -1.6289 H         1 <0>         0.0886
     37 H8          1.2238   -1.9317    2.1783 H         1 <0>         0.0824
     38 H9          1.6120   -2.2158    0.4614 H         1 <0>         0.0801
     39 H10         1.8459   -0.9674    3.2898 H         1 <0>         0.4064
     40 H11         1.3962    2.5562    3.5611 H         1 <0>         0.1480
     41 H12         2.2235    3.9113    5.4404 H         1 <0>         0.1588
     42 H13         4.3528    0.6939    6.9738 H         1 <0>         0.1592
     43 H14         3.5869   -0.7699    5.1508 H         1 <0>         0.1359
     44 H15        -0.1565   -3.8816   -0.0637 H         1 <0>         0.0663
     45 H16        -0.3158   -3.9467    1.7079 H         1 <0>         0.0745
     46 H17        -1.7580   -3.7053    0.6930 H         1 <0>         0.0692
     47 H18        -3.4110   -2.0227   -0.6477 H         1 <0>         0.1454
     48 H19        -4.3863   -3.3862   -2.4430 H         1 <0>         0.1487
     49 H20         0.4557   -2.4035   -2.4449 H         1 <0>         0.1487
@<TRIPOS>BOND
     1    1    2 1
     2    1   32 1
     3    1   33 1
     4    1   34 1
     5    2    3 1
     6    2    9 1
     7    2    4 1
     8    4    5 1
     9    4   35 1
    10    4   36 1
    11    5    6 1
    12    5   20 1
    13    6    7 1
    14    6    8 1
    15    6   19 1
    16    8    9 1
    17    8   37 1
    18    8   38 1
    19    9   10 am
    20   10   11 2
    21   10   12 am
    22   12   13 1
    23   12   39 1
    24   13   18 ar
    25   13   14 ar
    26   14   15 ar
    27   14   40 1
    28   15   16 ar
    29   15   41 1
    30   16   17 ar
    31   17   18 ar
    32   17   42 1
    33   18   43 1
    34   19   44 1
    35   19   45 1
    36   19   46 1
    37   20   25 ar
    38   20   21 ar
    39   21   22 ar
    40   21   47 1
    41   22   23 ar
    42   22   48 1
    43   23   24 ar
    44   23   30 1
    45   24   25 ar
    46   24   26 1
    47   25   49 1
    48   26   27 1
    49   26   28 1
    50   26   29 1
    51   30   31 3
@<TRIPOS>MOLECULE
CHEMBL199899__1
   50    52     0     0     0
SMALL
USER_CHARGES

@<TRIPOS>ATOM
      1 C1          1.0237    1.9102   -0.2458 C.3       1 <0>        -0.1422
      2 C2          0.8261    0.3949   -0.3210 C.3       1 <0>         0.1392
      3 H1          1.4460   -0.0158   -1.1179 H         1 <0>         0.0867
      4 C3         -0.6486    0.0814   -0.6026 C.3       1 <0>         0.1307
      5 N1         -0.8668   -1.3596   -0.4134 N.pl3     1 <0>        -0.6737
      6 C4         -0.4939   -1.9699    0.8704 C.3       1 <0>         0.1589
      7 H2         -1.1140   -1.5567    1.6658 H         1 <0>         0.0718
      8 C5          0.9808   -1.6565    1.1520 C.3       1 <0>         0.0896
      9 N2          1.2030   -0.2159    0.9615 N.am      1 <0>        -0.6017
     10 C6          1.7388    0.5320    1.9463 C.2       1 <0>         0.7039
     11 O1          2.0021    1.7020    1.7464 O.2       1 <0>        -0.5458
     12 N3          1.9828   -0.0170    3.1528 N.am      1 <0>        -0.6755
     13 C7          2.4323    0.7819    4.2048 C.ar      1 <0>         0.3040
     14 C8          2.0489    2.1186    4.3020 C.ar      1 <0>        -0.1454
     15 C9          2.5151    2.8747    5.3573 C.ar      1 <0>         0.1530
     16 N4          3.3133    2.3476    6.2665 N.ar      1 <0>        -0.4676
     17 C10         3.6986    1.0867    6.2094 C.ar      1 <0>         0.1587
     18 C11         3.2718    0.2624    5.1890 C.ar      1 <0>        -0.1720
     19 C12        -0.6955   -3.4848    0.7966 C.3       1 <0>        -0.1661
     20 C13        -1.4165   -2.1325   -1.4322 C.ar      1 <0>         0.1977
     21 C14        -2.7809   -2.4083   -1.4355 C.ar      1 <0>        -0.0932
     22 C15        -3.3277   -3.1723   -2.4413 C.ar      1 <0>        -0.0594
     23 C16        -2.5109   -3.6715   -3.4605 C.ar      1 <0>         0.0293
     24 C17        -1.1412   -3.3926   -3.4541 C.ar      1 <0>        -0.1302
     25 C18        -0.6018   -2.6230   -2.4481 C.ar      1 <0>        -0.0820
     26 C19        -0.2570   -3.9289   -4.5503 C.3       1 <0>         0.5030
     27 F1          1.0621   -3.5195   -4.3277 F         1 <0>        -0.1715
     28 F2         -0.3168   -5.3267   -4.5557 F         1 <0>        -0.1693
     29 F3         -0.6955   -3.4386   -5.7850 F         1 <0>        -0.1687
     30 C20        -3.0764   -4.4671   -4.5083 C.1       1 <0>         0.2217
     31 N5         -3.5249   -5.0983   -5.3396 N.1       1 <0>        -0.3646
     32 H3          2.0861    2.1337   -0.1484 H         1 <0>         0.0807
     33 H4          0.6369    2.3725   -1.1539 H         1 <0>         0.0600
     34 H5          0.4888    2.3039    0.6185 H         1 <0>         0.0692
     35 H6         -1.2798    0.6407    0.0880 H         1 <0>         0.0668
     36 H7         -0.8916    0.3566   -1.6289 H         1 <0>         0.0947
     37 H8          1.2238   -1.9317    2.1783 H         1 <0>         0.0808
     38 H9          1.6120   -2.2158    0.4614 H         1 <0>         0.0901
     39 H10         1.8459   -0.9674    3.2898 H         1 <0>         0.4232
     40 H11         1.3962    2.5562    3.5611 H         1 <0>         0.1933
     41 H12         2.2235    3.9113    5.4404 H         1 <0>         0.2115
     42 H13         4.3528    0.6939    6.9738 H         1 <0>         0.2122
     43 H14         3.5869   -0.7699    5.1508 H         1 <0>         0.1849
     44 H15        -0.1565   -3.8816   -0.0637 H         1 <0>         0.0693
     45 H16        -0.3158   -3.9467    1.7079 H         1 <0>         0.0746
     46 H17        -1.7580   -3.7053    0.6930 H         1 <0>         0.0733
     47 H18        -3.4110   -2.0227   -0.6477 H         1 <0>         0.1453
     48 H19        -4.3863   -3.3862   -2.4430 H         1 <0>         0.1507
     49 H20         0.4557   -2.4035   -2.4449 H         1 <0>         0.1479
     50 H21         3.6261    2.9031    6.9977 H         1 <0>         0.4518
@<TRIPOS>BOND
     1    1    2 1
     2    1   32 1
     3    1   33 1
     4    1   34 1
     5    2    3 1
     6    2    9 1
     7    2    4 1
     8    4    5 1
     9    4   35 1
    10    4   36 1
    11    5    6 1
    12    5   20 1
    13    6    7 1
    14    6    8 1
    15    6   19 1
    16    8    9 1
    17    8   37 1
    18    8   38 1
    19    9   10 am
    20   10   11 2
    21   10   12 am
    22   12   13 1
    23   12   39 1
    24   13   18 ar
    25   13   14 ar
    26   14   15 ar
    27   14   40 1
    28   15   16 ar
    29   15   41 1
    30   16   17 ar
    31   16   50 1
    32   17   18 ar
    33   17   42 1
    34   18   43 1
    35   19   44 1
    36   19   45 1
    37   19   46 1
    38   20   25 ar
    39   20   21 ar
    40   21   22 ar
    41   21   47 1
    42   22   23 ar
    43   22   48 1
    44   23   24 ar
    45   23   30 1
    46   24   25 ar
    47   24   26 1
    48   25   49 1
    49   26   27 1
    50   26   28 1
    51   26   29 1
    52   30   31 3
@<TRIPOS>MOLECULE
CHEMBL420197
   51    54     0     0     0
SMALL
USER_CHARGES

@<TRIPOS>ATOM
      1 C1         -0.0187    1.5258    0.0104 C.3       1 <0>        -0.1336
      2 C2          0.0021   -0.0041    0.0020 C.3       1 <0>        -0.0578
      3 C3          0.7543   -0.4988   -1.2173 C.3       1 <0>        -0.1040
      4 C4          2.1474    0.1537   -1.1951 C.3       1 <0>        -0.1181
      5 C5          2.8881   -0.1710    0.0969 C.3       1 <0>        -0.0646
      6 C6          2.0656    0.2297    1.3325 C.3       1 <0>        -0.0822
      7 C7          0.7521   -0.5250    1.2582 C.3       1 <0>        -0.0825
      8 C8         -0.2601   -0.2252    2.3690 C.3       1 <0>        -0.1125
      9 C9         -1.6138   -0.6320    1.7251 C.3       1 <0>        -0.1573
     10 C10        -1.4134   -0.5392    0.1917 C.3       1 <0>         0.1104
     11 O1         -2.3642    0.3625   -0.3782 O.3       1 <0>        -0.5599
     12 C11         2.8338   -0.1462    2.5995 C.3       1 <0>        -0.1095
     13 C12         4.1657    0.6118    2.6318 C.3       1 <0>        -0.1283
     14 C13         4.2857    1.4585    1.3657 C.3       1 <0>         0.1544
     15 H1          3.4553    2.1634    1.3250 H         1 <0>         0.0783
     16 C14         4.2331    0.5462    0.1385 C.3       1 <0>        -0.0476
     17 C15         4.4435    1.3696   -1.1036 C.2       1 <0>        -0.0909
     18 C16         5.3181    2.3780   -1.0648 C.2       1 <0>        -0.1972
     19 C17         6.0520    2.6403    0.1868 C.2       1 <0>         0.5454
     20 O2          7.1119    3.2361    0.1625 O.2       1 <0>        -0.5388
     21 N1          5.5467    2.1980    1.3514 N.am      1 <0>        -0.6102
     22 C18         6.2515    2.4797    2.6045 C.3       1 <0>         0.0819
     23 C19         5.3547   -0.4902    0.2322 C.3       1 <0>        -0.1392
     24 H2          1.0039    1.9031    0.0027 H         1 <0>         0.0585
     25 H3         -0.5459    1.8868   -0.8726 H         1 <0>         0.0604
     26 H4         -0.5289    1.8773    0.9072 H         1 <0>         0.0545
     27 H5          0.8527   -1.5836   -1.1770 H         1 <0>         0.0636
     28 H6          0.2232   -0.2076   -2.1236 H         1 <0>         0.0680
     29 H7          2.7276   -0.2139   -2.0415 H         1 <0>         0.0674
     30 H8          2.0370    1.2346   -1.2816 H         1 <0>         0.0722
     31 H9          3.0625   -1.2461    0.1408 H         1 <0>         0.0780
     32 H10         1.8736    1.3025    1.3130 H         1 <0>         0.0874
     33 H11         0.9364   -1.5962    1.1755 H         1 <0>         0.0777
     34 H12        -0.0551   -0.8314    3.2514 H         1 <0>         0.0666
     35 H13        -0.2553    0.8357    2.6191 H         1 <0>         0.0707
     36 H14        -1.8707   -1.6529    2.0077 H         1 <0>         0.0670
     37 H15        -2.3998    0.0535    2.0418 H         1 <0>         0.0726
     38 H16        -1.5082   -1.5258   -0.2620 H         1 <0>         0.0571
     39 H17        -3.2829    0.0743   -0.2878 H         1 <0>         0.3755
     40 H18         2.2426    0.1203    3.4756 H         1 <0>         0.0705
     41 H19         3.0260   -1.2191    2.6032 H         1 <0>         0.0679
     42 H20         4.1958    1.2594    3.5081 H         1 <0>         0.0742
     43 H21         4.9898   -0.1003    2.6740 H         1 <0>         0.0766
     44 H22         3.8979    1.1489   -2.0092 H         1 <0>         0.1412
     45 H23         5.4856    2.9921   -1.9373 H         1 <0>         0.1449
     46 H24         6.9433    1.6662    2.8230 H         1 <0>         0.0557
     47 H25         6.8068    3.4126    2.5072 H         1 <0>         0.0773
     48 H26         5.5289    2.5698    3.4155 H         1 <0>         0.0720
     49 H27         5.3171   -1.1459   -0.6377 H         1 <0>         0.0626
     50 H28         6.3181    0.0187    0.2621 H         1 <0>         0.0565
     51 H29         5.2280   -1.0818    1.1388 H         1 <0>         0.0674
@<TRIPOS>BOND
     1    1    2 1
     2    1   24 1
     3    1   25 1
     4    1   26 1
     5    2    7 1
     6    2   10 1
     7    2    3 1
     8    3    4 1
     9    3   27 1
    10    3   28 1
    11    4    5 1
    12    4   29 1
    13    4   30 1
    14    5   16 1
    15    5    6 1
    16    5   31 1
    17    6    7 1
    18    6   12 1
    19    6   32 1
    20    7    8 1
    21    7   33 1
    22    8    9 1
    23    8   34 1
    24    8   35 1
    25    9   10 1
    26    9   36 1
    27    9   37 1
    28   10   11 1
    29   10   38 1
    30   11   39 1
    31   12   13 1
    32   12   40 1
    33   12   41 1
    34   13   14 1
    35   13   42 1
    36   13   43 1
    37   14   15 1
    38   14   21 1
    39   14   16 1
    40   16   17 1
    41   16   23 1
    42   17   18 2
    43   17   44 1
    44   18   19 1
    45   18   45 1
    46   19   20 2
    47   19   21 am
    48   21   22 1
    49   22   46 1
    50   22   47 1
    51   22   48 1
    52   23   49 1
    53   23   50 1
    54   23   51 1
@<TRIPOS>MOLECULE
CHEMBL382892
   32    35     0     0     0
SMALL
USER_CHARGES

@<TRIPOS>ATOM
      1 C1         -0.0178    1.4608    0.0101 C.3       1 <0>         0.0676
      2 N1          0.0021   -0.0041    0.0020 N.pl3     1 <0>        -0.4671
      3 C2         -0.0894   -0.7867   -1.1163 C.ar      1 <0>         0.1038
      4 C3         -0.2189   -0.4649   -2.4653 C.ar      1 <0>        -0.1116
      5 C4         -0.2864   -1.5168   -3.3621 C.ar      1 <0>        -0.1163
      6 C5         -0.2296   -2.8440   -2.9538 C.ar      1 <0>         0.0785
      7 C6         -0.1008   -3.1927   -1.6176 C.ar      1 <0>        -0.0887
      8 C7         -0.0297   -2.1407   -0.6961 C.ar      1 <0>        -0.0798
      9 C8          0.1047   -2.1134    0.7435 C.2       1 <0>        -0.1515
     10 C9          0.1218   -0.8026    1.1201 C.2       1 <0>         0.1128
     11 C10         0.2436   -0.3356    2.5173 C.ar      1 <0>         0.0020
     12 C11        -0.1610    0.9531    2.8634 C.ar      1 <0>        -0.1486
     13 C12        -0.0539    1.3784    4.1737 C.ar      1 <0>         0.1085
     14 C13         0.4536    0.5289    5.1450 C.ar      1 <0>        -0.1348
     15 C14         0.8606   -0.7488    4.8126 C.ar      1 <0>        -0.0559
     16 C15         0.7641   -1.1889    3.5001 C.ar      1 <0>        -0.0870
     17 S1          1.3066   -2.8095    3.0700 S.3       1 <0>        -0.0909
     18 C16         0.2165   -3.2808    1.6905 C.3       1 <0>        -0.0259
     19 F1         -0.4448    2.6272    4.5098 F         1 <0>        -0.1328
     20 O1         -0.3027   -3.8276   -3.8899 O.3       1 <0>        -0.4993
     21 H1          0.8954    1.8340    0.4737 H         1 <0>         0.0823
     22 H2         -0.0821    1.8289   -1.0139 H         1 <0>         0.0937
     23 H3         -0.8815    1.8093    0.5764 H         1 <0>         0.0811
     24 H4         -0.2649    0.5618   -2.7972 H         1 <0>         0.1348
     25 H5         -0.3870   -1.2989   -4.4150 H         1 <0>         0.1319
     26 H6         -0.0570   -4.2251   -1.3033 H         1 <0>         0.1393
     27 H7         -0.5568    1.6172    2.1093 H         1 <0>         0.1461
     28 H8          0.5309    0.8680    6.1675 H         1 <0>         0.1468
     29 H9          1.2545   -1.4052    5.5744 H         1 <0>         0.1483
     30 H10        -0.7724   -3.5409    2.0681 H         1 <0>         0.1014
     31 H11         0.6466   -4.1353    1.1680 H         1 <0>         0.1232
     32 H12         0.5557   -4.0996   -4.2425 H         1 <0>         0.3880
@<TRIPOS>BOND
     1    1    2 1
     2    1   21 1
     3    1   22 1
     4    1   23 1
     5    2   10 1
     6    2    3 1
     7    3    8 ar
     8    3    4 ar
     9    4    5 ar
    10    4   24 1
    11    5    6 ar
    12    5   25 1
    13    6    7 ar
    14    6   20 1
    15    7    8 ar
    16    7   26 1
    17    8    9 1
    18    9   18 1
    19    9   10 2
    20   10   11 1
    21   11   16 ar
    22   11   12 ar
    23   12   13 ar
    24   12   27 1
    25   13   14 ar
    26   13   19 1
    27   14   15 ar
    28   14   28 1
    29   15   16 ar
    30   15   29 1
    31   16   17 1
    32   17   18 1
    33   18   30 1
    34   18   31 1
    35   20   32 1
@<TRIPOS>MOLECULE
CHEMBL131855
   39    41     0     0     0
SMALL
USER_CHARGES

@<TRIPOS>ATOM
      1 C1         -1.9614    0.5755    0.3867 C.3       1 <0>        -0.0982
      2 C2         -0.8391   -0.4055    0.1649 C.2       1 <0>        -0.1328
      3 C3         -0.7199   -1.0703   -1.0241 C.2       1 <0>        -0.0659
      4 C4          0.3288   -1.9645   -1.1845 C.2       1 <0>        -0.1381
      5 S1          1.1604   -1.8545    0.3914 S.3       1 <0>         0.1446
      6 C5          0.0941   -0.6463    1.1596 C.2       1 <0>        -0.0694
      7 C6          0.1829   -0.0564    2.5108 C.ar      1 <0>        -0.0709
      8 C7          0.0554    1.3257    2.6783 C.ar      1 <0>        -0.0410
      9 C8          0.1338    1.8851    3.9372 C.ar      1 <0>        -0.1786
     10 C9          0.3406    1.0747    5.0406 C.ar      1 <0>         0.2321
     11 C10         0.4752   -0.3159    4.8831 C.ar      1 <0>        -0.1150
     12 C11         0.3882   -0.8806    3.6182 C.ar      1 <0>        -0.0434
     13 C12         0.7065   -1.1460    6.0825 C.2       1 <0>        -0.0614
     14 C13         0.4760   -0.6380    7.2865 C.2       1 <0>        -0.1749
     15 C14        -0.0338    0.7688    7.4520 C.3       1 <0>         0.2136
     16 N1          0.4191    1.6014    6.3300 N.pl3     1 <0>        -0.7389
     17 C15         0.4981    1.3508    8.7632 C.3       1 <0>        -0.1531
     18 C16        -1.5633    0.7538    7.4889 C.3       1 <0>        -0.1582
     19 C17         1.2021   -2.5620    5.9398 C.3       1 <0>        -0.1179
     20 C18         0.6590   -2.7694   -2.3219 C.1       1 <0>         0.2932
     21 N2          0.9209   -3.4079   -3.2242 N.1       1 <0>        -0.3971
     22 H1         -1.6137    1.5830    0.1585 H         1 <0>         0.0715
     23 H2         -2.7982    0.3236   -0.2649 H         1 <0>         0.0683
     24 H3         -2.2841    0.5294    1.4268 H         1 <0>         0.0719
     25 H4         -1.4280   -0.9029   -1.8221 H         1 <0>         0.1461
     26 H5         -0.1056    1.9587    1.8181 H         1 <0>         0.1300
     27 H6          0.0344    2.9533    4.0616 H         1 <0>         0.1301
     28 H7          0.4827   -1.9490    3.4915 H         1 <0>         0.1298
     29 H8          0.6567   -1.2439    8.1621 H         1 <0>         0.1238
     30 H9          0.7637    2.4953    6.4816 H         1 <0>         0.4039
     31 H10         1.5879    1.3587    8.7416 H         1 <0>         0.0635
     32 H11         0.1298    2.3695    8.8845 H         1 <0>         0.0639
     33 H12         0.1556    0.7389    9.5977 H         1 <0>         0.0750
     34 H13        -1.9005    0.1434    8.3267 H         1 <0>         0.0667
     35 H14        -1.9338    1.7719    7.6088 H         1 <0>         0.0605
     36 H15        -1.9451    0.3354    6.5577 H         1 <0>         0.0577
     37 H16         2.2920   -2.5683    5.9502 H         1 <0>         0.0718
     38 H17         0.8274   -3.1633    6.7682 H         1 <0>         0.0688
     39 H18         0.8453   -2.9786    4.9979 H         1 <0>         0.0677
@<TRIPOS>BOND
     1    1    2 1
     2    1   22 1
     3    1   23 1
     4    1   24 1
     5    2    6 2
     6    2    3 1
     7    3    4 2
     8    3   25 1
     9    4    5 1
    10    4   20 1
    11    5    6 1
    12    6    7 1
    13    7   12 ar
    14    7    8 ar
    15    8    9 ar
    16    8   26 1
    17    9   10 ar
    18    9   27 1
    19   10   16 1
    20   10   11 ar
    21   11   12 ar
    22   11   13 1
    23   12   28 1
    24   13   14 2
    25   13   19 1
    26   14   15 1
    27   14   29 1
    28   15   16 1
    29   15   17 1
    30   15   18 1
    31   16   30 1
    32   17   31 1
    33   17   32 1
    34   17   33 1
    35   18   34 1
    36   18   35 1
    37   18   36 1
    38   19   37 1
    39   19   38 1
    40   19   39 1
    41   20   21 3
@<TRIPOS>MOLECULE
CHEMBL393278
   57    61     0     0     0
SMALL
USER_CHARGES

@<TRIPOS>ATOM
      1 C1         -0.0186    1.5233    0.0104 C.3       1 <0>        -0.1263
      2 C2          0.0021   -0.0041    0.0020 C.3       1 <0>        -0.0536
      3 C3         -1.4098   -0.5510    0.0109 C.3       1 <0>        -0.1019
      4 C4         -2.1127   -0.0940    1.2969 C.3       1 <0>        -0.1139
      5 C5         -1.3356   -0.4784    2.5481 C.3       1 <0>        -0.0684
      6 H1         -1.3424   -1.5679    2.6422 H         1 <0>         0.0644
      7 C6          0.1235   -0.0047    2.4919 C.3       1 <0>        -0.0694
      8 H2          0.1767    1.0793    2.4997 H         1 <0>         0.0817
      9 C7          0.7401   -0.5764    1.2363 C.3       1 <0>        -0.0801
     10 H3          0.6424   -1.6713    1.2492 H         1 <0>         0.0706
     11 C8          2.1965   -0.2041    0.9460 C.3       1 <0>        -0.1118
     12 C9          2.3291   -0.4680   -0.5789 C.3       1 <0>        -0.1564
     13 C10         0.8916   -0.4694   -1.1554 C.3       1 <0>         0.1066
     14 H4          0.6028   -1.4691   -1.4713 H         1 <0>         0.0569
     15 O1          0.7931    0.4510   -2.2432 O.3       1 <0>        -0.5593
     16 C11         0.8565   -0.5367    3.7304 C.3       1 <0>        -0.1148
     17 C12         0.1938    0.0453    4.9822 C.3       1 <0>        -0.1140
     18 C13        -1.2692   -0.3896    5.0328 C.3       1 <0>        -0.0657
     19 H5         -1.3190   -1.4806    5.0690 H         1 <0>         0.0679
     20 C14        -2.0182    0.1065    3.7958 C.3       1 <0>        -0.0352
     21 C15        -1.9804    1.6252    3.7233 C.3       1 <0>        -0.1051
     22 C16        -2.4779    2.3014    4.9904 C.3       1 <0>        -0.1158
     23 C17        -1.8861    1.7054    6.2566 C.3       1 <0>        -0.1026
     24 C18        -1.9446    0.1858    6.2761 C.3       1 <0>        -0.0686
     25 H6         -1.3913   -0.1713    7.1601 H         1 <0>         0.0690
     26 C19        -3.3759   -0.3263    6.3718 C.3       1 <0>         0.1183
     27 H7         -3.3513   -1.4131    6.5339 H         1 <0>         0.0462
     28 C20        -4.1839   -0.0353    5.1168 C.3       1 <0>        -0.1502
     29 C21        -3.4554   -0.4072    3.8369 C.3       1 <0>        -0.1022
     30 O2         -4.0216    0.2718    7.5029 O.3       1 <0>        -0.5681
     31 H8          1.0040    1.9005    0.0027 H         1 <0>         0.0529
     32 H9         -0.5458    1.8843   -0.8726 H         1 <0>         0.0598
     33 H10        -0.5288    1.8748    0.9072 H         1 <0>         0.0536
     34 H11        -1.9545   -0.1769   -0.8594 H         1 <0>         0.0639
     35 H12        -1.3810   -1.6423   -0.0266 H         1 <0>         0.0588
     36 H13        -2.2781    0.9794    1.2761 H         1 <0>         0.0677
     37 H14        -3.0949   -0.5837    1.3384 H         1 <0>         0.0587
     38 H15         2.3975    0.8381    1.1835 H         1 <0>         0.0695
     39 H16         2.8748   -0.8551    1.5041 H         1 <0>         0.0637
     40 H17         2.9209    0.3197   -1.0455 H         1 <0>         0.0725
     41 H18         2.7987   -1.4375   -0.7497 H         1 <0>         0.0649
     42 H19         1.3333    0.2136   -3.0094 H         1 <0>         0.3740
     43 H20         0.7884   -1.6226    3.7522 H         1 <0>         0.0602
     44 H21         1.8999   -0.2296    3.6933 H         1 <0>         0.0633
     45 H22         0.7136   -0.3201    5.8688 H         1 <0>         0.0605
     46 H23         0.2564    1.1322    4.9508 H         1 <0>         0.0686
     47 H24        -0.9564    1.9595    3.5229 H         1 <0>         0.0648
     48 H25        -2.6017    1.9571    2.8797 H         1 <0>         0.0585
     49 H26        -2.1687    3.3655    4.9440 H         1 <0>         0.0488
     50 H27        -3.5627    2.3127    5.0297 H         1 <0>         0.0643
     51 H28        -0.8412    2.0273    6.3529 H         1 <0>         0.0571
     52 H29        -2.4261    2.1000    7.1266 H         1 <0>         0.0666
     53 H30        -5.1100   -0.6426    5.1658 H         1 <0>         0.0511
     54 H31        -4.5125    0.9994    5.0940 H         1 <0>         0.0782
     55 H32        -4.0035    0.0025    2.9799 H         1 <0>         0.0659
     56 H33        -3.4439   -1.4987    3.7311 H         1 <0>         0.0583
     57 H34        -4.9387   -0.0090    7.6262 H         1 <0>         0.3756
@<TRIPOS>BOND
     1    1    2 1
     2    1   31 1
     3    1   32 1
     4    1   33 1
     5    2    9 1
     6    2   13 1
     7    2    3 1
     8    3    4 1
     9    3   34 1
    10    3   35 1
    11    4    5 1
    12    4   36 1
    13    4   37 1
    14    5    6 1
    15    5   20 1
    16    5    7 1
    17    7    8 1
    18    7    9 1
    19    7   16 1
    20    9   10 1
    21    9   11 1
    22   11   12 1
    23   11   38 1
    24   11   39 1
    25   12   13 1
    26   12   40 1
    27   12   41 1
    28   13   14 1
    29   13   15 1
    30   15   42 1
    31   16   17 1
    32   16   43 1
    33   16   44 1
    34   17   18 1
    35   17   45 1
    36   17   46 1
    37   18   19 1
    38   18   24 1
    39   18   20 1
    40   20   29 1
    41   20   21 1
    42   21   22 1
    43   21   47 1
    44   21   48 1
    45   22   23 1
    46   22   49 1
    47   22   50 1
    48   23   24 1
    49   23   51 1
    50   23   52 1
    51   24   25 1
    52   24   26 1
    53   26   27 1
    54   26   28 1
    55   26   30 1
    56   28   29 1
    57   28   53 1
    58   28   54 1
    59   29   55 1
    60   29   56 1
    61   30   57 1
@<TRIPOS>MOLECULE
CHEMBL202007
   52    55     0     0     0
SMALL
USER_CHARGES

@<TRIPOS>ATOM
      1 C1         -1.3081    1.8112   -0.2323 C.3       1 <0>        -0.1333
      2 C2         -1.1544    0.2960   -0.3360 C.3       1 <0>        -0.0450
      3 C3         -2.4310   -0.4247    0.0071 C.3       1 <0>        -0.1005
      4 C4         -2.6240   -0.5361    1.5232 C.3       1 <0>        -0.1078
      5 C5         -1.5985    0.2463    2.3215 C.3       1 <0>        -0.0675
      6 C6         -0.1649   -0.1295    1.9825 C.3       1 <0>        -0.0529
      7 C7          0.0141   -0.2646    0.4913 C.3       1 <0>        -0.0826
      8 C8          1.2151    0.4491   -0.1444 C.3       1 <0>        -0.1139
      9 C9          0.8885    0.3472   -1.6620 C.3       1 <0>        -0.1581
     10 C10        -0.6219    0.0098   -1.7618 C.3       1 <0>         0.0996
     11 H1         -0.7722   -1.0340   -2.0064 H         1 <0>         0.0590
     12 O1         -1.2688    0.8700   -2.6946 O.3       1 <0>        -0.5563
     13 C11         0.1707   -1.4983    2.5996 C.3       1 <0>        -0.0817
     14 C12        -0.1868   -1.5410    4.0491 C.2       1 <0>        -0.1491
     15 C13        -1.1025   -0.7888    4.5810 C.2       1 <0>        -0.0949
     16 C14        -1.8895    0.2252    3.8114 C.3       1 <0>         0.0245
     17 C15        -3.3819    0.0175    4.0673 C.3       1 <0>        -0.0989
     18 C16        -3.6735   -0.0351    5.5661 C.3       1 <0>        -0.1121
     19 C17        -2.9000   -1.1763    6.2260 C.3       1 <0>         0.1082
     20 H2         -3.1730   -2.1208    5.7538 H         1 <0>         0.0539
     21 C18        -1.3949   -0.9428    6.0639 C.3       1 <0>        -0.1132
     22 O2         -3.2258   -1.2308    7.6164 O.3       1 <0>        -0.5692
     23 C19        -1.5163    1.5941    4.3348 C.2       1 <0>        -0.1956
     24 C20        -0.3977    1.7593    5.0021 C.2       1 <0>         0.0170
     25 F1          0.4879    0.7435    5.0982 F         1 <0>        -0.1414
     26 H3         -0.3669    2.2911   -0.5005 H         1 <0>         0.0553
     27 H4         -2.0924    2.1442   -0.9120 H         1 <0>         0.0636
     28 H5         -1.5747    2.0802    0.7898 H         1 <0>         0.0564
     29 H6         -3.2859    0.1098   -0.4320 H         1 <0>         0.0638
     30 H7         -2.4170   -1.4322   -0.4333 H         1 <0>         0.0582
     31 H8         -3.6314   -0.1737    1.7747 H         1 <0>         0.0659
     32 H9         -2.5802   -1.5936    1.8149 H         1 <0>         0.0586
     33 H10        -1.7290    1.3113    2.0745 H         1 <0>         0.0763
     34 H11         0.5284    0.6198    2.3818 H         1 <0>         0.0746
     35 H12         0.1195   -1.3496    0.2595 H         1 <0>         0.0698
     36 H13         1.2902    1.4822    0.1762 H         1 <0>         0.0714
     37 H14         2.1398   -0.0870    0.0794 H         1 <0>         0.0638
     38 H15         1.0915    1.2982   -2.1517 H         1 <0>         0.0732
     39 H16         1.4797   -0.4464   -2.1155 H         1 <0>         0.0649
     40 H17        -0.9823    0.7444   -3.6096 H         1 <0>         0.3740
     41 H18        -0.3832   -2.2724    2.0645 H         1 <0>         0.0706
     42 H19         1.2403   -1.6854    2.4808 H         1 <0>         0.0666
     43 H20         0.3420   -2.2323    4.6920 H         1 <0>         0.1015
     44 H21        -3.9446    0.8386    3.6176 H         1 <0>         0.0746
     45 H22        -3.7000   -0.9228    3.6107 H         1 <0>         0.0722
     46 H23        -3.4173    0.9081    6.0420 H         1 <0>         0.0710
     47 H24        -4.7465   -0.2101    5.7095 H         1 <0>         0.0678
     48 H25        -0.8494   -1.8030    6.4561 H         1 <0>         0.0670
     49 H26        -1.0973   -0.0473    6.6042 H         1 <0>         0.0784
     50 H27        -2.7702   -1.9334    8.0999 H         1 <0>         0.3781
     51 H28        -2.1700    2.4358    4.1596 H         1 <0>         0.1351
     52 H29        -0.1855    2.7072    5.4742 H         1 <0>         0.1393
@<TRIPOS>BOND
     1    1    2 1
     2    1   26 1
     3    1   27 1
     4    1   28 1
     5    2    7 1
     6    2   10 1
     7    2    3 1
     8    3    4 1
     9    3   29 1
    10    3   30 1
    11    4    5 1
    12    4   31 1
    13    4   32 1
    14    5   16 1
    15    5    6 1
    16    5   33 1
    17    6    7 1
    18    6   13 1
    19    6   34 1
    20    7    8 1
    21    7   35 1
    22    8    9 1
    23    8   36 1
    24    8   37 1
    25    9   10 1
    26    9   38 1
    27    9   39 1
    28   10   11 1
    29   10   12 1
    30   12   40 1
    31   13   14 1
    32   13   41 1
    33   13   42 1
    34   14   15 2
    35   14   43 1
    36   15   21 1
    37   15   16 1
    38   16   17 1
    39   16   23 1
    40   17   18 1
    41   17   44 1
    42   17   45 1
    43   18   19 1
    44   18   46 1
    45   18   47 1
    46   19   20 1
    47   19   21 1
    48   19   22 1
    49   21   48 1
    50   21   49 1
    51   22   50 1
    52   23   24 2
    53   23   51 1
    54   24   25 1
    55   24   52 1
@<TRIPOS>MOLECULE
CHEMBL202007__1
   52    55     0     0     0
SMALL
USER_CHARGES

@<TRIPOS>ATOM
      1 C1         -1.2195    1.5707   -0.1533 C.3       1 <0>        -0.1318
      2 C2         -0.8627    0.0727   -0.1186 C.3       1 <0>        -0.0443
      3 C3         -2.1567   -0.7044   -0.1726 C.3       1 <0>        -0.1055
      4 C4         -1.9676   -2.1826    0.1626 C.3       1 <0>        -0.1183
      5 C5         -1.3551   -2.2803    1.5618 C.3       1 <0>        -0.0634
      6 C6          0.0393   -1.6643    1.5265 C.3       1 <0>        -0.0665
      7 C7         -0.0208   -0.1909    1.1341 C.3       1 <0>        -0.0707
      8 C8          1.4064    0.2431    0.7148 C.3       1 <0>        -0.1187
      9 C9          1.4876    0.0394   -0.8069 C.3       1 <0>        -0.1560
     10 C10         0.0549   -0.2226   -1.3142 C.3       1 <0>         0.1102
     11 H1         -0.0605   -1.2544   -1.6484 H         1 <0>         0.0616
     12 O1         -0.2518    0.6600   -2.4020 O.3       1 <0>        -0.5642
     13 C11         0.9220   -2.4511    0.5603 C.3       1 <0>        -0.0861
     14 C12         0.8706   -3.9132    0.8989 C.2       1 <0>        -0.1589
     15 C13        -0.1118   -4.4691    1.5448 C.2       1 <0>        -0.0906
     16 C14        -1.3148   -3.7226    2.0412 C.3       1 <0>         0.0260
     17 C15        -2.5876   -4.4575    1.6166 C.3       1 <0>        -0.1011
     18 C16        -2.5202   -5.9314    2.0142 C.3       1 <0>        -0.1121
     19 C17        -1.3356   -6.6053    1.3204 C.3       1 <0>         0.1066
     20 H2         -1.4254   -6.4754    0.2420 H         1 <0>         0.0539
     21 C18        -0.0325   -5.9636    1.8051 C.3       1 <0>        -0.1150
     22 O2         -1.3268   -7.9991    1.6333 O.3       1 <0>        -0.5688
     23 C19        -1.2647   -3.6944    3.5505 C.2       1 <0>        -0.1923
     24 C20        -0.1609   -4.0304    4.1772 C.2       1 <0>         0.0161
     25 F1          0.9722   -4.2546    3.4764 F         1 <0>        -0.1400
     26 H3         -0.3041    2.1615   -0.1864 H         1 <0>         0.0535
     27 H4         -1.8198    1.7808   -1.0385 H         1 <0>         0.0621
     28 H5         -1.7870    1.8298    0.7405 H         1 <0>         0.0472
     29 H6         -2.8614   -0.2665    0.5365 H         1 <0>         0.0639
     30 H7         -2.5753   -0.6208   -1.1771 H         1 <0>         0.0646
     31 H8         -2.9459   -2.6703    0.1523 H         1 <0>         0.0689
     32 H9         -1.3183   -2.6552   -0.5706 H         1 <0>         0.0665
     33 H10        -1.9741   -1.7016    2.2571 H         1 <0>         0.0736
     34 H11         0.4779   -1.7329    2.5325 H         1 <0>         0.0680
     35 H12        -0.3790    0.4180    1.9794 H         1 <0>         0.0805
     36 H13         1.5645    1.2966    0.9580 H         1 <0>         0.0620
     37 H14         2.1559   -0.3610    1.2243 H         1 <0>         0.0699
     38 H15         1.8963    0.9335   -1.2832 H         1 <0>         0.0709
     39 H16         2.1289   -0.8149   -1.0340 H         1 <0>         0.0670
     40 H17         0.2955    0.5217   -3.1870 H         1 <0>         0.3745
     41 H18         0.5832   -2.3148   -0.4639 H         1 <0>         0.0781
     42 H19         1.9568   -2.1094    0.6436 H         1 <0>         0.0708
     43 H20         1.6965   -4.5376    0.5876 H         1 <0>         0.1002
     44 H21        -3.4516   -3.9919    2.0931 H         1 <0>         0.0747
     45 H22        -2.6994   -4.3954    0.5308 H         1 <0>         0.0743
     46 H23        -2.4255   -6.0375    3.0910 H         1 <0>         0.0708
     47 H24        -3.4435   -6.4270    1.6958 H         1 <0>         0.0684
     48 H25         0.8075   -6.3846    1.2492 H         1 <0>         0.0662
     49 H26         0.1032   -6.1540    2.8680 H         1 <0>         0.0801
     50 H27        -0.6000   -8.4893    1.2252 H         1 <0>         0.3780
     51 H28        -2.1368   -3.3978    4.1143 H         1 <0>         0.1356
     52 H29        -0.1588   -4.1275    5.2528 H         1 <0>         0.1397
@<TRIPOS>BOND
     1    1    2 1
     2    1   26 1
     3    1   27 1
     4    1   28 1
     5    2    7 1
     6    2   10 1
     7    2    3 1
     8    3    4 1
     9    3   29 1
    10    3   30 1
    11    4    5 1
    12    4   31 1
    13    4   32 1
    14    5   16 1
    15    5    6 1
    16    5   33 1
    17    6    7 1
    18    6   13 1
    19    6   34 1
    20    7    8 1
    21    7   35 1
    22    8    9 1
    23    8   36 1
    24    8   37 1
    25    9   10 1
    26    9   38 1
    27    9   39 1
    28   10   11 1
    29   10   12 1
    30   12   40 1
    31   13   14 1
    32   13   41 1
    33   13   42 1
    34   14   15 2
    35   14   43 1
    36   15   21 1
    37   15   16 1
    38   16   17 1
    39   16   23 1
    40   17   18 1
    41   17   44 1
    42   17   45 1
    43   18   19 1
    44   18   46 1
    45   18   47 1
    46   19   20 1
    47   19   21 1
    48   19   22 1
    49   21   48 1
    50   21   49 1
    51   22   50 1
    52   23   24 2
    53   23   51 1
    54   24   25 1
    55   24   52 1
@<TRIPOS>MOLECULE
CHEMBL202007__2
   52    55     0     0     0
SMALL
USER_CHARGES

@<TRIPOS>ATOM
      1 C1         -0.2004    1.0053   -0.1488 C.3       1 <0>        -0.1339
      2 C2         -0.1922   -0.5110    0.0324 C.3       1 <0>        -0.0438
      3 C3         -1.5810   -1.0803    0.1758 C.3       1 <0>        -0.1009
      4 C4         -2.1217   -0.8886    1.5966 C.3       1 <0>        -0.1083
      5 C5         -1.2472    0.0015    2.4594 C.3       1 <0>        -0.0649
      6 C6          0.1964   -0.5037    2.5327 C.3       1 <0>        -0.0630
      7 C7          0.6872   -0.9910    1.2077 C.3       1 <0>        -0.0767
      8 C8          2.0956   -0.5841    0.7675 C.3       1 <0>        -0.1138
      9 C9          2.0683   -0.7148   -0.7785 C.3       1 <0>        -0.1574
     10 C10         0.6137   -1.1158   -1.1477 C.3       1 <0>         0.0984
     11 H1          0.4956   -2.1933   -1.1708 H         1 <0>         0.0617
     12 O1          0.2130   -0.5133   -2.3759 O.3       1 <0>        -0.5563
     13 C11         1.0435    0.6322    3.1176 C.3       1 <0>        -0.0782
     14 C12         0.4764    0.9596    4.4744 C.2       1 <0>        -0.1584
     15 C13        -0.7576    0.7318    4.8049 C.2       1 <0>        -0.0912
     16 C14        -1.7908    0.1366    3.8789 C.3       1 <0>         0.0224
     17 C15        -2.2501   -1.1956    4.4562 C.3       1 <0>        -0.0973
     18 C16        -1.7181   -1.3693    5.8783 C.3       1 <0>        -0.1083
     19 C17        -1.9852   -0.1468    6.7487 C.3       1 <0>         0.1118
     20 H2         -1.6426   -0.3543    7.7685 H         1 <0>         0.0491
     21 C18        -1.2269    1.0727    6.2088 C.3       1 <0>        -0.1207
     22 O2         -3.3864    0.1287    6.7862 O.3       1 <0>        -0.5614
     23 C19        -2.9729    1.0731    3.8216 C.2       1 <0>        -0.1697
     24 C20        -2.8061    2.3555    4.0487 C.2       1 <0>         0.0028
     25 F1         -1.5604    2.8620    4.1793 F         1 <0>        -0.1471
     26 H3          0.8249    1.3681   -0.2208 H         1 <0>         0.0548
     27 H4         -0.7406    1.2593   -1.0608 H         1 <0>         0.0621
     28 H5         -0.6914    1.4706    0.7059 H         1 <0>         0.0587
     29 H6         -2.2557   -0.5900   -0.5395 H         1 <0>         0.0631
     30 H7         -1.5666   -2.1520   -0.0667 H         1 <0>         0.0589
     31 H8         -3.1313   -0.4626    1.5320 H         1 <0>         0.0610
     32 H9         -2.2184   -1.8752    2.0687 H         1 <0>         0.0620
     33 H10        -1.2557    1.0212    2.0554 H         1 <0>         0.0793
     34 H11         0.2282   -1.3457    3.2523 H         1 <0>         0.0678
     35 H12         0.6621   -2.1005    1.2177 H         1 <0>         0.0654
     36 H13         2.3127    0.4392    1.0578 H         1 <0>         0.0728
     37 H14         2.8320   -1.2682    1.1869 H         1 <0>         0.0641
     38 H15         2.3321    0.2329   -1.2416 H         1 <0>         0.0748
     39 H16         2.7610   -1.4945   -1.0954 H         1 <0>         0.0617
     40 H17         0.6824   -0.8509   -3.1511 H         1 <0>         0.3744
     41 H18         2.0753    0.3050    3.2258 H         1 <0>         0.0709
     42 H19         0.9891    1.5090    2.4794 H         1 <0>         0.0750
     43 H20         1.1304    1.4054    5.2058 H         1 <0>         0.1011
     44 H21        -3.3398   -1.2324    4.4691 H         1 <0>         0.0723
     45 H22        -1.8727   -2.0131    3.8390 H         1 <0>         0.0685
     46 H23        -2.2044   -2.2383    6.3305 H         1 <0>         0.0652
     47 H24        -0.6442   -1.5568    5.8389 H         1 <0>         0.0739
     48 H25        -0.3591    1.2742    6.8448 H         1 <0>         0.0698
     49 H26        -1.8715    1.9494    6.1972 H         1 <0>         0.0816
     50 H27        -3.6221    0.8964    7.3248 H         1 <0>         0.3743
     51 H28        -3.9561    0.6885    3.5938 H         1 <0>         0.1330
     52 H29        -3.6646    3.0055    4.1312 H         1 <0>         0.1384
@<TRIPOS>BOND
     1    1    2 1
     2    1   26 1
     3    1   27 1
     4    1   28 1
     5    2    7 1
     6    2   10 1
     7    2    3 1
     8    3    4 1
     9    3   29 1
    10    3   30 1
    11    4    5 1
    12    4   31 1
    13    4   32 1
    14    5   16 1
    15    5    6 1
    16    5   33 1
    17    6    7 1
    18    6   13 1
    19    6   34 1
    20    7    8 1
    21    7   35 1
    22    8    9 1
    23    8   36 1
    24    8   37 1
    25    9   10 1
    26    9   38 1
    27    9   39 1
    28   10   11 1
    29   10   12 1
    30   12   40 1
    31   13   14 1
    32   13   41 1
    33   13   42 1
    34   14   15 2
    35   14   43 1
    36   15   21 1
    37   15   16 1
    38   16   17 1
    39   16   23 1
    40   17   18 1
    41   17   44 1
    42   17   45 1
    43   18   19 1
    44   18   46 1
    45   18   47 1
    46   19   20 1
    47   19   21 1
    48   19   22 1
    49   21   48 1
    50   21   49 1
    51   22   50 1
    52   23   24 2
    53   23   51 1
    54   24   25 1
    55   24   52 1
@<TRIPOS>MOLECULE
CHEMBL202007__3
   52    55     0     0     0
SMALL
USER_CHARGES

@<TRIPOS>ATOM
      1 C1          0.1968    1.5293    0.3165 C.3       1 <0>        -0.1298
      2 C2          0.1526    0.0032    0.2177 C.3       1 <0>        -0.0461
      3 C3         -1.2894   -0.4441    0.1364 C.3       1 <0>        -0.1066
      4 C4         -1.3854   -1.9674    0.1710 C.3       1 <0>        -0.1182
      5 C5         -0.7817   -2.4729    1.4886 C.3       1 <0>        -0.0616
      6 C6          0.6986   -2.0952    1.5346 C.3       1 <0>        -0.0708
      7 C7          0.8953   -0.5973    1.4222 C.3       1 <0>        -0.0757
      8 C8          2.3830   -0.3794    1.0135 C.3       1 <0>        -0.1204
      9 C9          2.3974   -0.6814   -0.5012 C.3       1 <0>        -0.1571
     10 C10         0.9608   -0.4408   -1.0086 C.3       1 <0>         0.1080
     11 H1          0.5473   -1.3626   -1.4178 H         1 <0>         0.0590
     12 O1          0.9544    0.5868   -2.0016 O.3       1 <0>        -0.5607
     13 C11         1.2724   -2.5502    2.8847 C.3       1 <0>        -0.0817
     14 C12         0.9658   -3.9995    3.1109 C.2       1 <0>        -0.1571
     15 C13         0.0038   -4.6299    2.5169 C.2       1 <0>        -0.0904
     16 C14        -0.9334   -3.9893    1.5308 C.3       1 <0>         0.0203
     17 C15        -0.7049   -4.6018    0.1510 C.3       1 <0>        -0.0931
     18 C16        -0.1888   -6.0333    0.2932 C.3       1 <0>        -0.1109
     19 C17        -0.8000   -6.7197    1.5131 C.3       1 <0>         0.1069
     20 H2         -0.5732   -7.7854    1.4818 H         1 <0>         0.0531
     21 C18        -0.2117   -6.1093    2.7929 C.3       1 <0>        -0.1219
     22 O2         -2.2168   -6.5339    1.5040 O.3       1 <0>        -0.5499
     23 C19        -2.3461   -4.3108    1.9455 C.2       1 <0>        -0.1119
     24 C20        -2.6340   -4.4862    3.2145 C.2       1 <0>        -0.0401
     25 F1         -1.6972   -4.2492    4.1587 F         1 <0>        -0.1534
     26 H3          1.2342    1.8638    0.3129 H         1 <0>         0.0553
     27 H4         -0.3280    1.9639   -0.5343 H         1 <0>         0.0614
     28 H5         -0.2843    1.8476    1.2413 H         1 <0>         0.0477
     29 H6         -1.8416   -0.0304    0.9802 H         1 <0>         0.0643
     30 H7         -1.7269   -0.0779   -0.7923 H         1 <0>         0.0651
     31 H8         -2.4310   -2.2689    0.1090 H         1 <0>         0.0652
     32 H9         -0.8320   -2.3874   -0.6690 H         1 <0>         0.0676
     33 H10        -1.3121   -2.0274    2.3302 H         1 <0>         0.0745
     34 H11         1.2273   -2.5848    0.7168 H         1 <0>         0.0745
     35 H12         0.6363   -0.0960    2.3548 H         1 <0>         0.0844
     36 H13         2.6844    0.6512    1.2011 H         1 <0>         0.0671
     37 H14         3.0323   -1.0726    1.5482 H         1 <0>         0.0683
     38 H15         3.0906   -0.0112   -1.0095 H         1 <0>         0.0711
     39 H16         2.6858   -1.7185   -0.6729 H         1 <0>         0.0656
     40 H17         1.4499    0.3638   -2.8015 H         1 <0>         0.3742
     41 H18         2.3526   -2.4047    2.8861 H         1 <0>         0.0688
     42 H19         0.8284   -1.9576    3.6845 H         1 <0>         0.0717
     43 H20         1.5817   -4.5485    3.8078 H         1 <0>         0.0997
     44 H21        -1.6444   -4.6092   -0.4016 H         1 <0>         0.0701
     45 H22         0.0279   -4.0054   -0.3926 H         1 <0>         0.0640
     46 H23        -0.4487   -6.5977   -0.6024 H         1 <0>         0.0662
     47 H24         0.8958   -6.0135    0.4000 H         1 <0>         0.0726
     48 H25         0.7391   -6.5861    3.0307 H         1 <0>         0.0741
     49 H26        -0.9102   -6.2359    3.6200 H         1 <0>         0.0813
     50 H27        -2.6722   -6.9444    2.2518 H         1 <0>         0.3708
     51 H28        -3.1217   -4.3970    1.1990 H         1 <0>         0.1315
     52 H29        -3.6196   -4.8200    3.5036 H         1 <0>         0.1331
@<TRIPOS>BOND
     1    1    2 1
     2    1   26 1
     3    1   27 1
     4    1   28 1
     5    2    7 1
     6    2   10 1
     7    2    3 1
     8    3    4 1
     9    3   29 1
    10    3   30 1
    11    4    5 1
    12    4   31 1
    13    4   32 1
    14    5   16 1
    15    5    6 1
    16    5   33 1
    17    6    7 1
    18    6   13 1
    19    6   34 1
    20    7    8 1
    21    7   35 1
    22    8    9 1
    23    8   36 1
    24    8   37 1
    25    9   10 1
    26    9   38 1
    27    9   39 1
    28   10   11 1
    29   10   12 1
    30   12   40 1
    31   13   14 1
    32   13   41 1
    33   13   42 1
    34   14   15 2
    35   14   43 1
    36   15   21 1
    37   15   16 1
    38   16   17 1
    39   16   23 1
    40   17   18 1
    41   17   44 1
    42   17   45 1
    43   18   19 1
    44   18   46 1
    45   18   47 1
    46   19   20 1
    47   19   21 1
    48   19   22 1
    49   21   48 1
    50   21   49 1
    51   22   50 1
    52   23   24 2
    53   23   51 1
    54   24   25 1
    55   24   52 1
@<TRIPOS>MOLECULE
CHEMBL202007__4
   52    55     0     0     0
SMALL
USER_CHARGES

@<TRIPOS>ATOM
      1 C1         -0.4062    1.2053   -0.1848 C.3       1 <0>        -0.1318
      2 C2         -0.4612   -0.3212   -0.0976 C.3       1 <0>        -0.0570
      3 C3         -1.8875   -0.7710    0.1563 C.3       1 <0>        -0.1028
      4 C4         -2.3804   -0.0277    1.4076 C.3       1 <0>        -0.1164
      5 C5         -1.4842   -0.2943    2.6137 C.3       1 <0>        -0.0635
      6 C6         -0.0118    0.0156    2.3104 C.3       1 <0>        -0.0691
      7 C7          0.3917   -0.8115    1.1030 C.3       1 <0>        -0.0837
      8 C8          1.8161   -0.5786    0.5878 C.3       1 <0>        -0.1129
      9 C9          1.7332   -1.0522   -0.8891 C.3       1 <0>        -0.1569
     10 C10         0.2451   -0.9343   -1.3026 C.3       1 <0>         0.1105
     11 H1         -0.1658   -1.9203   -1.5199 H         1 <0>         0.0565
     12 O1          0.1137   -0.0804   -2.4409 O.3       1 <0>        -0.5599
     13 C11         0.8255   -0.4060    3.5229 C.3       1 <0>        -0.0811
     14 C12         0.3071    0.2889    4.7480 C.2       1 <0>        -0.1502
     15 C13        -0.9244    0.6902    4.8679 C.2       1 <0>        -0.0961
     16 C14        -1.9656    0.5216    3.8017 C.3       1 <0>         0.0229
     17 C15        -3.2158   -0.1220    4.4080 C.3       1 <0>        -0.1006
     18 C16        -3.6787    0.7031    5.6104 C.3       1 <0>        -0.1121
     19 C17        -2.5968    0.6899    6.6916 C.3       1 <0>         0.1073
     20 H2         -2.3641   -0.3405    6.9602 H         1 <0>         0.0539
     21 C18        -1.3353    1.3754    6.1604 C.3       1 <0>        -0.1140
     22 O2         -3.0684    1.3881    7.8458 O.3       1 <0>        -0.5687
     23 C19        -2.3553    1.8900    3.3049 C.2       1 <0>        -0.1881
     24 C20        -1.5586    2.9137    3.5081 C.2       1 <0>         0.0123
     25 F1         -0.3290    2.7190    4.0328 F         1 <0>        -0.1415
     26 H3          0.6269    1.5244   -0.3231 H         1 <0>         0.0528
     27 H4         -1.0068    1.5429   -1.0295 H         1 <0>         0.0582
     28 H5         -0.7995    1.6363    0.7359 H         1 <0>         0.0603
     29 H6         -2.5148   -0.5166   -0.6980 H         1 <0>         0.0663
     30 H7         -1.9125   -1.8468    0.3294 H         1 <0>         0.0621
     31 H8         -2.3921    1.0429    1.2034 H         1 <0>         0.0730
     32 H9         -3.3941   -0.3549    1.6390 H         1 <0>         0.0626
     33 H10        -1.5586   -1.3510    2.8703 H         1 <0>         0.0678
     34 H11         0.1144    1.0775    2.0991 H         1 <0>         0.0866
     35 H12         0.2133   -1.8706    1.2888 H         1 <0>         0.0758
     36 H13         2.0771    0.4785    0.6397 H         1 <0>         0.0702
     37 H14         2.5318   -1.1816    1.1466 H         1 <0>         0.0659
     38 H15         2.3492   -0.4134   -1.5220 H         1 <0>         0.0721
     39 H16         2.0627   -2.0882   -0.9688 H         1 <0>         0.0665
     40 H17         0.5436   -0.4188   -3.2382 H         1 <0>         0.3747
     41 H18         0.7525   -1.4851    3.6582 H         1 <0>         0.0705
     42 H19         1.8670   -0.1286    3.3604 H         1 <0>         0.0700
     43 H20         0.9878    0.4636    5.5680 H         1 <0>         0.1022
     44 H21        -4.0085   -0.1516    3.6604 H         1 <0>         0.0757
     45 H22        -2.9822   -1.1364    4.7312 H         1 <0>         0.0678
     46 H23        -3.8645    1.7300    5.2957 H         1 <0>         0.0720
     47 H24        -4.5976    0.2755    6.0116 H         1 <0>         0.0705
     48 H25        -0.5332    1.2879    6.8933 H         1 <0>         0.0681
     49 H26        -1.5438    2.4278    5.9677 H         1 <0>         0.0787
     50 H27        -2.4324    1.4196    8.5736 H         1 <0>         0.3779
     51 H28        -3.2900    2.0286    2.7818 H         1 <0>         0.1357
     52 H29        -1.8863    3.9114    3.2557 H         1 <0>         0.1388
@<TRIPOS>BOND
     1    1    2 1
     2    1   26 1
     3    1   27 1
     4    1   28 1
     5    2    7 1
     6    2   10 1
     7    2    3 1
     8    3    4 1
     9    3   29 1
    10    3   30 1
    11    4    5 1
    12    4   31 1
    13    4   32 1
    14    5   16 1
    15    5    6 1
    16    5   33 1
    17    6    7 1
    18    6   13 1
    19    6   34 1
    20    7    8 1
    21    7   35 1
    22    8    9 1
    23    8   36 1
    24    8   37 1
    25    9   10 1
    26    9   38 1
    27    9   39 1
    28   10   11 1
    29   10   12 1
    30   12   40 1
    31   13   14 1
    32   13   41 1
    33   13   42 1
    34   14   15 2
    35   14   43 1
    36   15   21 1
    37   15   16 1
    38   16   17 1
    39   16   23 1
    40   17   18 1
    41   17   44 1
    42   17   45 1
    43   18   19 1
    44   18   46 1
    45   18   47 1
    46   19   20 1
    47   19   21 1
    48   19   22 1
    49   21   48 1
    50   21   49 1
    51   22   50 1
    52   23   24 2
    53   23   51 1
    54   24   25 1
    55   24   52 1
@<TRIPOS>MOLECULE
CHEMBL202007__5
   52    55     0     0     0
SMALL
USER_CHARGES

@<TRIPOS>ATOM
      1 C1         -0.3945    1.1972   -0.3396 C.3       1 <0>        -0.1251
      2 C2         -0.3950   -0.3292   -0.2353 C.3       1 <0>        -0.0425
      3 C3         -1.8156   -0.8942   -0.1485 C.3       1 <0>        -0.1093
      4 C4         -2.4378   -0.5692    1.2057 C.3       1 <0>        -0.1120
      5 C5         -1.6162   -1.2522    2.3059 C.3       1 <0>        -0.0620
      6 C6         -0.2029   -0.6766    2.2888 C.3       1 <0>        -0.0658
      7 C7          0.4532   -0.8247    0.9481 C.3       1 <0>        -0.0714
      8 C8          0.7324   -2.2984    0.5987 C.3       1 <0>        -0.1179
      9 C9          0.9816   -2.2656   -0.9269 C.3       1 <0>        -0.1590
     10 C10         0.2882   -0.9973   -1.4585 C.3       1 <0>         0.1029
     11 H1         -0.4595   -1.2644   -2.2053 H         1 <0>         0.0558
     12 O1          1.2546   -0.1107   -2.0259 O.3       1 <0>        -0.5614
     13 C11         0.6293   -1.3924    3.3597 C.3       1 <0>        -0.0825
     14 C12        -0.0555   -1.2624    4.6887 C.2       1 <0>        -0.1501
     15 C13        -1.3401   -1.1010    4.8103 C.2       1 <0>        -0.0966
     16 C14        -2.2851   -1.0116    3.6492 C.3       1 <0>         0.0224
     17 C15        -3.4330   -2.0048    3.8516 C.3       1 <0>        -0.0996
     18 C16        -4.0888   -1.7497    5.2103 C.3       1 <0>        -0.1122
     19 C17        -3.0752   -1.9974    6.3286 C.3       1 <0>         0.1074
     20 H2         -2.6827   -3.0108    6.2450 H         1 <0>         0.0540
     21 C18        -1.9248   -0.9922    6.2087 C.3       1 <0>        -0.1143
     22 O2         -3.7159   -1.8380    7.5959 O.3       1 <0>        -0.5689
     23 C19        -2.8811    0.3725    3.6354 C.2       1 <0>        -0.1864
     24 C20        -2.2796    1.3525    4.2693 C.2       1 <0>         0.0113
     25 F1         -1.0579    1.1569    4.8117 F         1 <0>        -0.1418
     26 H3          0.6267    1.5515   -0.4802 H         1 <0>         0.0646
     27 H4         -1.0055    1.5035   -1.1887 H         1 <0>         0.0522
     28 H5         -0.8044    1.6240    0.5758 H         1 <0>         0.0522
     29 H6         -2.4256   -0.4569   -0.9390 H         1 <0>         0.0628
     30 H7         -1.7811   -1.9759   -0.2783 H         1 <0>         0.0639
     31 H8         -2.4308    0.5097    1.3613 H         1 <0>         0.0702
     32 H9         -3.4634   -0.9373    1.2341 H         1 <0>         0.0650
     33 H10        -1.5698   -2.3237    2.1110 H         1 <0>         0.0741
     34 H11        -0.2487    0.3835    2.5381 H         1 <0>         0.0712
     35 H12         1.4017   -0.2877    0.9562 H         1 <0>         0.0721
     36 H13         1.6174   -2.6566    1.1246 H         1 <0>         0.0669
     37 H14        -0.1324   -2.9191    0.8332 H         1 <0>         0.0685
     38 H15         2.0515   -2.2191   -1.1297 H         1 <0>         0.0722
     39 H16         0.5506   -3.1508   -1.3948 H         1 <0>         0.0660
     40 H17         1.7161   -0.4720   -2.7950 H         1 <0>         0.3746
     41 H18         0.7252   -2.4470    3.1014 H         1 <0>         0.0732
     42 H19         1.6191   -0.9392    3.4145 H         1 <0>         0.0684
     43 H20         0.5459   -1.3045    5.5848 H         1 <0>         0.1024
     44 H21        -4.1715   -1.8735    3.0607 H         1 <0>         0.0754
     45 H22        -3.0434   -3.0223    3.8210 H         1 <0>         0.0678
     46 H23        -4.4353   -0.7173    5.2574 H         1 <0>         0.0720
     47 H24        -4.9376   -2.4220    5.3351 H         1 <0>         0.0704
     48 H25        -1.1569   -1.2235    6.9469 H         1 <0>         0.0679
     49 H26        -2.3001    0.0180    6.3723 H         1 <0>         0.0788
     50 H27        -3.1314   -1.9806    8.3529 H         1 <0>         0.3780
     51 H28        -3.8028    0.5583    3.1042 H         1 <0>         0.1356
     52 H29        -2.7617    2.3150    4.3571 H         1 <0>         0.1385
@<TRIPOS>BOND
     1    1    2 1
     2    1   26 1
     3    1   27 1
     4    1   28 1
     5    2    7 1
     6    2   10 1
     7    2    3 1
     8    3    4 1
     9    3   29 1
    10    3   30 1
    11    4    5 1
    12    4   31 1
    13    4   32 1
    14    5   16 1
    15    5    6 1
    16    5   33 1
    17    6    7 1
    18    6   13 1
    19    6   34 1
    20    7    8 1
    21    7   35 1
    22    8    9 1
    23    8   36 1
    24    8   37 1
    25    9   10 1
    26    9   38 1
    27    9   39 1
    28   10   11 1
    29   10   12 1
    30   12   40 1
    31   13   14 1
    32   13   41 1
    33   13   42 1
    34   14   15 2
    35   14   43 1
    36   15   21 1
    37   15   16 1
    38   16   17 1
    39   16   23 1
    40   17   18 1
    41   17   44 1
    42   17   45 1
    43   18   19 1
    44   18   46 1
    45   18   47 1
    46   19   20 1
    47   19   21 1
    48   19   22 1
    49   21   48 1
    50   21   49 1
    51   22   50 1
    52   23   24 2
    53   23   51 1
    54   24   25 1
    55   24   52 1
@<TRIPOS>MOLECULE
CHEMBL202007__6
   52    55     0     0     0
SMALL
USER_CHARGES

@<TRIPOS>ATOM
      1 C1         -0.0048    0.4510   -0.4629 C.3       1 <0>        -0.1357
      2 C2         -0.0091   -1.0295   -0.0902 C.3       1 <0>        -0.0476
      3 C3         -1.4200   -1.5353    0.0617 C.3       1 <0>        -0.1033
      4 C4         -2.0363   -0.9551    1.3517 C.3       1 <0>        -0.1047
      5 C5         -1.2140   -1.3496    2.5635 C.3       1 <0>        -0.0627
      6 C6          0.2358   -0.8389    2.4451 C.3       1 <0>        -0.0567
      7 C7          0.8148   -1.3573    1.1682 C.3       1 <0>        -0.0780
      8 C8          2.2172   -0.9045    0.7442 C.3       1 <0>        -0.1126
      9 C9          2.3042   -1.4463   -0.7133 C.3       1 <0>        -0.1575
     10 C10         0.8477   -1.7477   -1.1566 C.3       1 <0>         0.1004
     11 H1          0.6459   -2.8115   -1.1360 H         1 <0>         0.0588
     12 O1          0.5872   -1.1847   -2.4394 O.3       1 <0>        -0.5562
     13 C11         0.2332    0.6801    2.5761 C.3       1 <0>        -0.0835
     14 C12        -0.3536    1.0320    3.9200 C.2       1 <0>        -0.1603
     15 C13        -1.2612    0.2994    4.4861 C.2       1 <0>        -0.0899
     16 C14        -1.8075   -0.9762    3.9025 C.3       1 <0>         0.0267
     17 C15        -1.5555   -2.1039    4.9148 C.3       1 <0>        -0.1000
     18 C16        -0.8581   -1.5521    6.1543 C.3       1 <0>        -0.1075
     19 C17        -1.6713   -0.4361    6.8033 C.3       1 <0>         0.1098
     20 H2         -1.1627   -0.0972    7.7082 H         1 <0>         0.0517
     21 C18        -1.8130    0.7403    5.8312 C.3       1 <0>        -0.1201
     22 O2         -2.9667   -0.9284    7.1542 O.3       1 <0>        -0.5638
     23 C19        -3.3017   -0.8245    3.7781 C.2       1 <0>        -0.1721
     24 C20        -3.8337    0.3714    3.6741 C.2       1 <0>         0.0060
     25 F1         -3.0382    1.4560    3.5478 F         1 <0>        -0.1447
     26 H3          1.0149    0.8336   -0.4199 H         1 <0>         0.0552
     27 H4         -0.3962    0.5725   -1.4730 H         1 <0>         0.0657
     28 H5         -0.6302    1.0040    0.2380 H         1 <0>         0.0554
     29 H6         -2.0250   -1.2234   -0.7946 H         1 <0>         0.0661
     30 H7         -1.4253   -2.6264    0.1197 H         1 <0>         0.0587
     31 H8         -2.1058    0.1240    1.2739 H         1 <0>         0.0668
     32 H9         -3.0437   -1.3779    1.4152 H         1 <0>         0.0608
     33 H10        -1.1477   -2.4543    2.5464 H         1 <0>         0.0630
     34 H11         0.8115   -1.2569    3.3023 H         1 <0>         0.0690
     35 H12         0.8635   -2.4757    1.2537 H         1 <0>         0.0640
     36 H13         2.3277    0.1725    0.7765 H         1 <0>         0.0740
     37 H14         2.9754   -1.3861    1.3688 H         1 <0>         0.0629
     38 H15         2.7458   -0.6937   -1.3648 H         1 <0>         0.0735
     39 H16         2.8967   -2.3614   -0.7338 H         1 <0>         0.0644
     40 H17         1.0931   -1.5900   -3.1570 H         1 <0>         0.3736
     41 H18         1.2452    1.0715    2.5144 H         1 <0>         0.0677
     42 H19        -0.4053    1.1465    1.8319 H         1 <0>         0.0833
     43 H20        -0.0021    1.9165    4.4180 H         1 <0>         0.1023
     44 H21        -2.5072   -2.5515    5.1913 H         1 <0>         0.0754
     45 H22        -0.9213   -2.8585    4.4495 H         1 <0>         0.0647
     46 H23        -0.7253   -2.3597    6.8782 H         1 <0>         0.0654
     47 H24         0.1242   -1.1696    5.8778 H         1 <0>         0.0756
     48 H25        -1.2304    1.5914    6.1993 H         1 <0>         0.0688
     49 H26        -2.8566    1.0375    5.7421 H         1 <0>         0.0814
     50 H27        -3.5379   -0.2697    7.5724 H         1 <0>         0.3749
     51 H28        -3.9349   -1.6994    3.7746 H         1 <0>         0.1327
     52 H29        -4.9073    0.4880    3.6894 H         1 <0>         0.1377
@<TRIPOS>BOND
     1    1    2 1
     2    1   26 1
     3    1   27 1
     4    1   28 1
     5    2    7 1
     6    2   10 1
     7    2    3 1
     8    3    4 1
     9    3   29 1
    10    3   30 1
    11    4    5 1
    12    4   31 1
    13    4   32 1
    14    5   16 1
    15    5    6 1
    16    5   33 1
    17    6    7 1
    18    6   13 1
    19    6   34 1
    20    7    8 1
    21    7   35 1
    22    8    9 1
    23    8   36 1
    24    8   37 1
    25    9   10 1
    26    9   38 1
    27    9   39 1
    28   10   11 1
    29   10   12 1
    30   12   40 1
    31   13   14 1
    32   13   41 1
    33   13   42 1
    34   14   15 2
    35   14   43 1
    36   15   21 1
    37   15   16 1
    38   16   17 1
    39   16   23 1
    40   17   18 1
    41   17   44 1
    42   17   45 1
    43   18   19 1
    44   18   46 1
    45   18   47 1
    46   19   20 1
    47   19   21 1
    48   19   22 1
    49   21   48 1
    50   21   49 1
    51   22   50 1
    52   23   24 2
    53   23   51 1
    54   24   25 1
    55   24   52 1
@<TRIPOS>MOLECULE
CHEMBL202007__7
   52    55     0     0     0
SMALL
USER_CHARGES

@<TRIPOS>ATOM
      1 C1         -0.1073    0.6355   -0.5560 C.3       1 <0>        -0.1335
      2 C2         -0.2174   -0.8576   -0.2121 C.3       1 <0>        -0.0381
      3 C3         -1.6765   -1.2174   -0.1190 C.3       1 <0>        -0.1018
      4 C4         -1.9947   -2.5024    0.6161 C.3       1 <0>        -0.1313
      5 C5         -1.1762   -2.7172    1.8808 C.3       1 <0>        -0.0565
      6 C6          0.3002   -2.5250    1.5935 C.3       1 <0>        -0.0688
      7 C7          0.5995   -1.1258    1.0627 C.3       1 <0>        -0.0644
      8 C8          2.0660   -1.1383    0.5534 C.3       1 <0>        -0.1243
      9 C9          2.0079   -1.4334   -0.9562 C.3       1 <0>        -0.1570
     10 C10         0.5181   -1.6660   -1.2989 C.3       1 <0>         0.1070
     11 H1          0.2634   -2.7205   -1.2376 H         1 <0>         0.0608
     12 O1          0.2140   -1.1545   -2.6005 O.3       1 <0>        -0.5606
     13 C11         1.1475   -2.8418    2.8188 C.3       1 <0>        -0.0878
     14 C12         0.5849   -2.1952    4.0467 C.2       1 <0>        -0.1467
     15 C13        -0.6517   -1.8283    4.1718 C.2       1 <0>        -0.1056
     16 C14        -1.6922   -1.9863    3.0953 C.3       1 <0>         0.0344
     17 C15        -2.8739   -2.7637    3.6935 C.3       1 <0>        -0.1397
     18 C16        -3.3713   -2.1018    4.9740 C.3       1 <0>        -0.1077
     19 C17        -2.2631   -2.0328    6.0236 C.3       1 <0>         0.1097
     20 H2         -1.9192   -3.0394    6.2594 H         1 <0>         0.0537
     21 C18        -1.0914   -1.2049    5.4856 C.3       1 <0>        -0.1146
     22 O2         -2.7696   -1.4178    7.2112 O.3       1 <0>        -0.5695
     23 C19        -2.1827   -0.6112    2.7408 C.2       1 <0>        -0.1646
     24 C20        -3.3855   -0.4524    2.2390 C.2       1 <0>         0.0079
     25 F1         -4.1204   -1.5314    1.8915 F         1 <0>        -0.1384
     26 H3          0.9384    0.8937   -0.7229 H         1 <0>         0.0537
     27 H4         -0.6815    0.8437   -1.4588 H         1 <0>         0.0603
     28 H5         -0.5007    1.2284    0.2697 H         1 <0>         0.0483
     29 H6         -2.2492   -0.3781    0.2640 H         1 <0>         0.0658
     30 H7         -2.0329   -1.3456   -1.1637 H         1 <0>         0.0538
     31 H8         -3.0670   -2.5325    0.8611 H         1 <0>         0.0923
     32 H9         -1.8180   -3.3523   -0.0668 H         1 <0>         0.0522
     33 H10        -1.2899   -3.8085    2.1262 H         1 <0>         0.0580
     34 H11         0.5808   -3.2453    0.8009 H         1 <0>         0.0669
     35 H12         0.4461   -0.3557    1.8204 H         1 <0>         0.0847
     36 H13         2.5341   -0.1724    0.7322 H         1 <0>         0.0635
     37 H14         2.6339   -1.9192    1.0579 H         1 <0>         0.0686
     38 H15         2.3982   -0.5865   -1.5174 H         1 <0>         0.0728
     39 H16         2.5874   -2.3271   -1.1836 H         1 <0>         0.0619
     40 H17         0.6516   -1.6280   -3.3212 H         1 <0>         0.3755
     41 H18         1.1816   -3.9266    2.9651 H         1 <0>         0.0715
     42 H19         2.1728   -2.4913    2.6680 H         1 <0>         0.0762
     43 H20         1.2539   -2.0277    4.8831 H         1 <0>         0.1031
     44 H21        -3.6824   -2.7947    2.9590 H         1 <0>         0.1084
     45 H22        -2.5535   -3.7844    3.9060 H         1 <0>         0.0627
     46 H23        -3.7501   -1.1021    4.7729 H         1 <0>         0.0705
     47 H24        -4.1988   -2.7012    5.3804 H         1 <0>         0.0655
     48 H25        -0.2639   -1.2412    6.1996 H         1 <0>         0.0675
     49 H26        -1.3976   -0.1745    5.3343 H         1 <0>         0.0807
     50 H27        -2.1189   -1.3405    7.9223 H         1 <0>         0.3775
     51 H28        -1.5458    0.2466    2.8988 H         1 <0>         0.1317
     52 H29        -3.7875    0.5409    2.1040 H         1 <0>         0.1440
@<TRIPOS>BOND
     1    1    2 1
     2    1   26 1
     3    1   27 1
     4    1   28 1
     5    2    7 1
     6    2   10 1
     7    2    3 1
     8    3    4 1
     9    3   29 1
    10    3   30 1
    11    4    5 1
    12    4   31 1
    13    4   32 1
    14    5   16 1
    15    5    6 1
    16    5   33 1
    17    6    7 1
    18    6   13 1
    19    6   34 1
    20    7    8 1
    21    7   35 1
    22    8    9 1
    23    8   36 1
    24    8   37 1
    25    9   10 1
    26    9   38 1
    27    9   39 1
    28   10   11 1
    29   10   12 1
    30   12   40 1
    31   13   14 1
    32   13   41 1
    33   13   42 1
    34   14   15 2
    35   14   43 1
    36   15   21 1
    37   15   16 1
    38   16   17 1
    39   16   23 1
    40   17   18 1
    41   17   44 1
    42   17   45 1
    43   18   19 1
    44   18   46 1
    45   18   47 1
    46   19   20 1
    47   19   21 1
    48   19   22 1
    49   21   48 1
    50   21   49 1
    51   22   50 1
    52   23   24 2
    53   23   51 1
    54   24   25 1
    55   24   52 1
@<TRIPOS>MOLECULE
CHEMBL74671
   58    62     0     0     0
SMALL
USER_CHARGES

@<TRIPOS>ATOM
      1 C1         -0.0188    1.5319    0.0105 C.3       1 <0>        -0.1342
      2 C2          0.0021   -0.0041    0.0020 C.3       1 <0>        -0.0431
      3 C3         -1.4117   -0.5297    0.0587 C.3       1 <0>        -0.1095
      4 C4         -1.7906   -0.9186    1.5023 C.3       1 <0>        -0.1069
      5 C5         -1.1693    0.0811    2.4602 C.3       1 <0>        -0.0709
      6 C6          0.3468   -0.1548    2.5166 C.3       1 <0>        -0.0720
      7 C7          0.8457   -0.5553    1.1692 C.3       1 <0>        -0.0702
      8 C8          2.2675   -0.1277    0.7784 C.3       1 <0>        -0.1142
      9 C9          2.2971   -0.4676   -0.7393 C.3       1 <0>        -0.1382
     10 C10         0.8317   -0.4137   -1.2137 C.3       1 <0>         0.1155
     11 C11         0.4106   -1.7694   -1.8057 C.3       1 <0>        -0.1480
     12 C12         1.0983   -1.6488   -3.2045 C.3       1 <0>        -0.1604
     13 C13         0.7862   -0.1690   -3.5412 C.3       1 <0>         0.0460
     14 O1          0.6918    0.5272   -2.2857 O.3       1 <0>        -0.3665
     15 C14         1.0079    1.0259    3.2029 C.3       1 <0>        -0.1062
     16 C15         0.4624    1.0891    4.6452 C.3       1 <0>        -0.1235
     17 C16        -1.0501    1.2315    4.6320 C.3       1 <0>         0.1555
     18 C17        -1.7333    0.0840    3.8706 C.3       1 <0>        -0.0423
     19 C18        -3.2180    0.3620    3.8507 C.2       1 <0>        -0.0837
     20 C19        -3.7903    0.9029    4.9267 C.2       1 <0>        -0.1962
     21 C20        -2.9670    1.2067    6.1108 C.2       1 <0>         0.5458
     22 O2         -3.4825    1.3418    7.2026 O.2       1 <0>        -0.5340
     23 N1         -1.6259    1.3358    5.9689 N.am      1 <0>        -0.6125
     24 C21        -0.7928    1.5808    7.1476 C.3       1 <0>         0.0832
     25 C22        -1.4991   -1.2507    4.5723 C.3       1 <0>        -0.1370
     26 H1          0.9813    1.9100   -0.2017 H         1 <0>         0.0571
     27 H2         -0.7117    1.8901   -0.7509 H         1 <0>         0.0577
     28 H3         -0.3406    1.8855    0.9900 H         1 <0>         0.0561
     29 H4         -2.1024    0.2439   -0.2952 H         1 <0>         0.0652
     30 H5         -1.5246   -1.4080   -0.5775 H         1 <0>         0.0690
     31 H6         -2.8766   -0.9163    1.6066 H         1 <0>         0.0663
     32 H7         -1.4133   -1.9220    1.7148 H         1 <0>         0.0644
     33 H8         -1.3550    1.0909    2.0644 H         1 <0>         0.0788
     34 H9          0.5350   -1.0268    3.1689 H         1 <0>         0.0682
     35 H10         0.8130   -1.6646    1.1151 H         1 <0>         0.0678
     36 H11         2.4381    0.9286    0.9500 H         1 <0>         0.0742
     37 H12         3.0064   -0.7286    1.3133 H         1 <0>         0.0648
     38 H13         2.8947    0.2662   -1.2765 H         1 <0>         0.0739
     39 H14         2.7019   -1.4683   -0.8878 H         1 <0>         0.0685
     40 H15         0.8211   -2.6026   -1.2419 H         1 <0>         0.0834
     41 H16        -0.6652   -1.8532   -1.9325 H         1 <0>         0.0850
     42 H17         2.1674   -1.8149   -3.1264 H         1 <0>         0.0776
     43 H18         0.6311   -2.3169   -3.9217 H         1 <0>         0.0809
     44 H19         1.5901    0.2517   -4.1396 H         1 <0>         0.0700
     45 H20        -0.1608   -0.1033   -4.0716 H         1 <0>         0.0662
     46 H21         2.0870    0.8824    3.2343 H         1 <0>         0.0748
     47 H22         0.7681    1.9520    2.6873 H         1 <0>         0.0702
     48 H23         0.7619    0.1905    5.1777 H         1 <0>         0.0741
     49 H24         0.9108    1.9610    5.1311 H         1 <0>         0.0733
     50 H25        -1.2917    2.1650    4.0990 H         1 <0>         0.0665
     51 H26        -3.8053    0.1237    2.9761 H         1 <0>         0.1338
     52 H27        -4.8504    1.1176    4.9310 H         1 <0>         0.1450
     53 H28        -0.7016    2.6545    7.3114 H         1 <0>         0.0552
     54 H29        -1.2532    1.1179    8.0205 H         1 <0>         0.0760
     55 H30         0.1967    1.1522    6.9887 H         1 <0>         0.0729
     56 H31        -0.4286   -1.4477    4.6304 H         1 <0>         0.0669
     57 H32        -1.9162   -1.2103    5.5785 H         1 <0>         0.0557
     58 H33        -1.9852   -2.0474    4.0092 H         1 <0>         0.0639
@<TRIPOS>BOND
     1    1    2 1
     2    1   26 1
     3    1   27 1
     4    1   28 1
     5    2    7 1
     6    2   10 1
     7    2    3 1
     8    3    4 1
     9    3   29 1
    10    3   30 1
    11    4    5 1
    12    4   31 1
    13    4   32 1
    14    5   18 1
    15    5    6 1
    16    5   33 1
    17    6    7 1
    18    6   15 1
    19    6   34 1
    20    7    8 1
    21    7   35 1
    22    8    9 1
    23    8   36 1
    24    8   37 1
    25    9   10 1
    26    9   38 1
    27    9   39 1
    28   10   14 1
    29   10   11 1
    30   11   12 1
    31   11   40 1
    32   11   41 1
    33   12   13 1
    34   12   42 1
    35   12   43 1
    36   13   14 1
    37   13   44 1
    38   13   45 1
    39   15   16 1
    40   15   46 1
    41   15   47 1
    42   16   17 1
    43   16   48 1
    44   16   49 1
    45   17   23 1
    46   17   18 1
    47   17   50 1
    48   18   19 1
    49   18   25 1
    50   19   20 2
    51   19   51 1
    52   20   21 1
    53   20   52 1
    54   21   22 2
    55   21   23 am
    56   23   24 1
    57   24   53 1
    58   24   54 1
    59   24   55 1
    60   25   56 1
    61   25   57 1
    62   25   58 1
@<TRIPOS>MOLECULE
CHEMBL163425
   40    43     0     0     0
SMALL
USER_CHARGES

@<TRIPOS>ATOM
      1 C1         -0.0178    1.4608    0.0101 C.3       1 <0>         0.0593
      2 N1          0.0021   -0.0041    0.0020 N.am      1 <0>        -0.5159
      3 C2         -1.1865   -0.7060    0.0038 C.ar      1 <0>         0.2444
      4 C3         -2.4025   -0.0400    0.0421 C.ar      1 <0>        -0.2311
      5 C4         -3.5909   -0.7617    0.0344 C.ar      1 <0>         0.2592
      6 C5         -3.5530   -2.1567   -0.0373 C.ar      1 <0>        -0.1724
      7 C6         -2.3700   -2.8279   -0.0493 C.ar      1 <0>        -0.0049
      8 C7         -1.1633   -2.1146   -0.0227 C.ar      1 <0>        -0.1643
      9 C8          0.0829   -2.7912   -0.0238 C.2       1 <0>        -0.0595
     10 C9          1.2290   -2.0660   -0.0159 C.2       1 <0>        -0.1698
     11 C10         1.1792   -0.6568   -0.0127 C.2       1 <0>         0.5370
     12 O1          2.2185   -0.0196   -0.0189 O.2       1 <0>        -0.5240
     13 C11         0.1333   -4.2973   -0.0342 C.3       1 <0>         0.5063
     14 F1          1.4671   -4.7194   -0.0333 F         1 <0>        -0.1685
     15 F2         -0.5136   -4.7934    1.1027 F         1 <0>        -0.1676
     16 F3         -0.5070   -4.7774   -1.1818 F         1 <0>        -0.1678
     17 C12        -4.9886   -2.6593   -0.1334 C.3       1 <0>        -0.0445
     18 H1         -5.1059   -3.3784   -0.9441 H         1 <0>         0.1007
     19 C13        -5.3421   -3.2832    1.2164 C.3       1 <0>        -0.1085
     20 C14        -6.8569   -3.4522    1.3291 C.3       1 <0>        -0.1216
     21 C15        -7.4949   -2.0644    1.3513 C.3       1 <0>        -0.1164
     22 C16        -7.1856   -1.3164    0.0704 C.3       1 <0>        -0.1182
     23 C17        -5.7661   -1.3778   -0.4115 C.3       1 <0>         0.1556
     24 H2         -5.7736   -1.2478   -1.4937 H         1 <0>         0.0611
     25 N2         -4.9132   -0.3074    0.1111 N.pl3     1 <0>        -0.7317
     26 H3          1.0048    1.8381    0.0023 H         1 <0>         0.1045
     27 H4         -0.5450    1.8219   -0.8730 H         1 <0>         0.0790
     28 H5         -0.5280    1.8123    0.9069 H         1 <0>         0.0787
     29 H6         -2.4263    1.0391    0.0783 H         1 <0>         0.1362
     30 H7         -2.3602   -3.9074   -0.0789 H         1 <0>         0.1345
     31 H8          2.1842   -2.5701   -0.0155 H         1 <0>         0.1683
     32 H9         -4.8615   -4.2578    1.3020 H         1 <0>         0.0691
     33 H10        -4.9893   -2.6349    2.0186 H         1 <0>         0.0658
     34 H11        -7.2286   -4.0136    0.4719 H         1 <0>         0.0668
     35 H12        -7.0998   -3.9828    2.2497 H         1 <0>         0.0678
     36 H13        -8.5750   -2.1668    1.4560 H         1 <0>         0.0680
     37 H14        -7.1036   -1.5023    2.1993 H         1 <0>         0.0610
     38 H15        -7.8179   -1.7196   -0.7206 H         1 <0>         0.0759
     39 H16        -7.4542   -0.2698    0.2138 H         1 <0>         0.0693
     40 H17        -5.2086    0.5534    0.4467 H         1 <0>         0.4182
@<TRIPOS>BOND
     1    1    2 1
     2    1   26 1
     3    1   27 1
     4    1   28 1
     5    2   11 am
     6    2    3 1
     7    3    8 ar
     8    3    4 ar
     9    4    5 ar
    10    4   29 1
    11    5   25 1
    12    5    6 ar
    13    6    7 ar
    14    6   17 1
    15    7    8 ar
    16    7   30 1
    17    8    9 1
    18    9   10 2
    19    9   13 1
    20   10   11 1
    21   10   31 1
    22   11   12 2
    23   13   14 1
    24   13   15 1
    25   13   16 1
    26   17   18 1
    27   17   23 1
    28   17   19 1
    29   19   20 1
    30   19   32 1
    31   19   33 1
    32   20   21 1
    33   20   34 1
    34   20   35 1
    35   21   22 1
    36   21   36 1
    37   21   37 1
    38   22   23 1
    39   22   38 1
    40   22   39 1
    41   23   24 1
    42   23   25 1
    43   25   40 1
@<TRIPOS>MOLECULE
CHEMBL520169
   47    51     0     0     0
SMALL
USER_CHARGES

@<TRIPOS>ATOM
      1 C1         -1.1348   -1.2645   -0.5340 C.3       1 <0>         0.0555
      2 N1         -0.2529   -2.3693   -0.1498 N.pl3     1 <0>        -0.4152
      3 C2          0.0616   -3.4569   -0.9333 C.2       1 <0>         0.0559
      4 C3          0.9175   -4.2675   -0.2144 C.2       1 <0>        -0.1059
      5 C4          1.1255   -3.6624    1.0244 C.2       1 <0>        -0.1753
      6 C5          0.4004   -2.4906    1.0442 C.2       1 <0>         0.0967
      7 C6          0.3377   -1.5314    2.1657 C.ar      1 <0>        -0.0460
      8 C7         -0.0432   -0.2057    1.9424 C.ar      1 <0>        -0.0779
      9 C8         -0.0946    0.6683    2.9962 C.ar      1 <0>        -0.1574
     10 C9          0.2301    0.2650    4.3043 C.ar      1 <0>         0.2029
     11 C10         0.6031   -1.0471    4.5247 C.ar      1 <0>        -0.1334
     12 C11         0.6514   -1.9376    3.4583 C.ar      1 <0>        -0.0451
     13 C12         0.9639   -1.6109    5.8643 C.3       1 <0>         0.3576
     14 O1          1.6283   -0.7300    6.7203 O.3       1 <0>        -0.3389
     15 C13         0.8706    0.2321    7.4177 C.3       1 <0>         0.0417
     16 C14         0.4491    1.3470    6.5238 C.2       1 <0>         0.5013
     17 O2          0.3994    2.4542    7.0164 O.2       1 <0>        -0.5233
     18 N2          0.1282    1.2486    5.2612 N.am      1 <0>        -0.6451
     19 C15        -0.3017   -2.0677    6.5430 C.2       1 <0>        -0.2174
     20 C16        -1.5280   -2.2828    6.0069 C.2       1 <0>        -0.1133
     21 C17        -2.5545   -2.7061    6.8301 C.2       1 <0>        -0.1632
     22 C18        -2.3046   -2.8936    8.1491 C.2       1 <0>        -0.1584
     23 S1         -0.5730   -2.4736    8.2602 S.3       1 <0>         0.0744
     24 C19         1.8419   -2.8169    5.6503 C.2       1 <0>        -0.1602
     25 C20         3.1911   -2.8813    5.5372 C.2       1 <0>        -0.1131
     26 C21         3.7895   -4.1120    5.3429 C.2       1 <0>        -0.1595
     27 C22         3.0095   -5.2182    5.2711 C.2       1 <0>        -0.1640
     28 S2          1.3754   -4.5325    5.4878 S.3       1 <0>         0.0697
     29 C23        -0.4157   -3.7041   -2.2606 C.1       1 <0>         0.2768
     30 N3         -0.7943   -3.9003   -3.3136 N.1       1 <0>        -0.4037
     31 H1         -0.5359   -0.4371   -0.9147 H         1 <0>         0.0860
     32 H2         -1.8230   -1.6016   -1.3092 H         1 <0>         0.0886
     33 H3         -1.7016   -0.9326    0.3359 H         1 <0>         0.0972
     34 H4          1.3468   -5.2000   -0.5500 H         1 <0>         0.1544
     35 H5          1.7462   -4.0414    1.8227 H         1 <0>         0.1509
     36 H6         -0.2948    0.1276    0.9464 H         1 <0>         0.1375
     37 H7         -0.3913    1.6915    2.8185 H         1 <0>         0.1369
     38 H8          0.9418   -2.9625    3.6361 H         1 <0>         0.1445
     39 H9         -0.0163   -0.2460    7.8335 H         1 <0>         0.1023
     40 H10         1.4712    0.6363    8.2326 H         1 <0>         0.1497
     41 H11        -0.2770    2.0600    4.9173 H         1 <0>         0.4024
     42 H12        -1.7004   -2.1254    4.9525 H         1 <0>         0.1357
     43 H13        -3.5410   -2.8844    6.4284 H         1 <0>         0.1390
     44 H14        -2.9774   -3.2172    8.9295 H         1 <0>         0.1908
     45 H15         3.7895   -1.9843    5.5977 H         1 <0>         0.1394
     46 H16         4.8625   -4.1910    5.2492 H         1 <0>         0.1387
     47 H17         3.3011   -6.2478    5.1248 H         1 <0>         0.1899
@<TRIPOS>BOND
     1    1    2 1
     2    1   31 1
     3    1   32 1
     4    1   33 1
     5    2    6 1
     6    2    3 1
     7    3    4 2
     8    3   29 1
     9    4    5 1
    10    4   34 1
    11    5    6 2
    12    5   35 1
    13    6    7 1
    14    7   12 ar
    15    7    8 ar
    16    8    9 ar
    17    8   36 1
    18    9   10 ar
    19    9   37 1
    20   10   18 1
    21   10   11 ar
    22   11   12 ar
    23   11   13 1
    24   12   38 1
    25   13   14 1
    26   13   19 1
    27   13   24 1
    28   14   15 1
    29   15   16 1
    30   15   39 1
    31   15   40 1
    32   16   17 2
    33   16   18 am
    34   18   41 1
    35   19   23 1
    36   19   20 2
    37   20   21 1
    38   20   42 1
    39   21   22 2
    40   21   43 1
    41   22   23 1
    42   22   44 1
    43   24   28 1
    44   24   25 2
    45   25   26 1
    46   25   45 1
    47   26   27 2
    48   26   46 1
    49   27   28 1
    50   27   47 1
    51   29   30 3
@<TRIPOS>MOLECULE
CHEMBL132363
   53    57     0     0     0
SMALL
USER_CHARGES

@<TRIPOS>ATOM
      1 C1         -0.0184    1.5028    0.0103 C.3       1 <0>        -0.1149
      2 C2          0.0021   -0.0041    0.0020 C.ar      1 <0>        -0.1232
      3 C3          0.0059   -0.6985   -1.1924 C.ar      1 <0>        -0.0791
      4 C4          0.0249   -2.0874   -1.1538 C.ar      1 <0>        -0.1698
      5 C5          0.0394   -2.7339    0.0678 C.ar      1 <0>         0.0940
      6 N1          0.0349   -2.0523    1.1954 N.ar      1 <0>        -0.4508
      7 C6          0.0232   -0.7206    1.2043 C.ar      1 <0>         0.1577
      8 C7          0.0261    0.0004    2.4833 C.2       1 <0>        -0.1226
      9 C8          0.0464   -0.6857    3.6442 C.2       1 <0>         0.1525
     10 C9          0.1116   -0.1359    4.9230 C.ar      1 <0>        -0.0392
     11 C10        -0.7918   -0.7163    5.8463 C.ar      1 <0>        -0.0889
     12 C11        -1.1879   -0.0207    6.9669 C.ar      1 <0>        -0.0551
     13 C12        -0.6820    1.2043    7.2870 C.ar      1 <0>        -0.1660
     14 C13         0.4271    1.6820    6.5661 C.ar      1 <0>         0.2250
     15 C14         0.9014    0.9718    5.4092 C.ar      1 <0>        -0.0947
     16 C15         2.1760    1.3775    4.8256 C.2       1 <0>        -0.0606
     17 C16         2.7694    2.4901    5.2246 C.2       1 <0>        -0.1737
     18 C17         2.2494    3.3517    6.2676 C.3       1 <0>         0.2283
     19 N2          1.0390    2.8868    6.8122 N.pl3     1 <0>        -0.7079
     20 C18         2.1123    4.7923    5.7487 C.3       1 <0>        -0.1576
     21 C19         3.3298    3.4727    7.4209 C.3       1 <0>        -0.1728
     22 C20         2.8605    0.5015    3.7097 C.3       1 <0>        -0.1082
     23 C21        -1.3174   -2.1111    5.5098 C.ar      1 <0>        -0.1162
     24 C22        -2.2441   -2.6719    6.3541 C.ar      1 <0>        -0.1047
     25 C23        -2.6533   -3.9974    6.0439 C.ar      1 <0>         0.0626
     26 C24        -2.1313   -4.6455    4.8754 C.ar      1 <0>        -0.1161
     27 C25        -1.2273   -4.0125    4.0814 C.ar      1 <0>        -0.1195
     28 C26        -0.7467   -2.7356    4.3425 C.ar      1 <0>         0.1461
     29 O1          0.0642   -2.0597    3.6042 O.3       1 <0>        -0.1978
     30 F1         -3.5497   -4.5864    6.7851 F         1 <0>        -0.1231
     31 H1          1.0042    1.8801    0.0026 H         1 <0>         0.0754
     32 H2         -0.5455    1.8639   -0.8728 H         1 <0>         0.0709
     33 H3         -0.5286    1.8543    0.9071 H         1 <0>         0.0711
     34 H4         -0.0059   -0.1731   -2.1359 H         1 <0>         0.1341
     35 H5          0.0281   -2.6573   -2.0712 H         1 <0>         0.1338
     36 H6          0.0542   -3.8133    0.0986 H         1 <0>         0.1552
     37 H7          0.0119    1.0803    2.4944 H         1 <0>         0.1558
     38 H8         -1.9821   -0.4119    7.5808 H         1 <0>         0.1266
     39 H9         -1.0235    1.7782    8.1314 H         1 <0>         0.1353
     40 H10         3.7732    2.7151    4.6868 H         1 <0>         0.1357
     41 H11         0.6038    3.4742    7.5606 H         1 <0>         0.4053
     42 H12         1.4294    4.8091    4.8993 H         1 <0>         0.0581
     43 H13         1.7207    5.4287    6.5423 H         1 <0>         0.0609
     44 H14         3.0895    5.1606    5.4365 H         1 <0>         0.0715
     45 H15         4.2479    3.8982    7.0156 H         1 <0>         0.0672
     46 H16         2.9474    4.1194    8.2107 H         1 <0>         0.0591
     47 H17         3.5373    2.4838    7.8297 H         1 <0>         0.0536
     48 H18         2.5180    0.8303    2.7286 H         1 <0>         0.0703
     49 H19         3.9429    0.6133    3.7730 H         1 <0>         0.0659
     50 H20         2.5943   -0.5454    3.8554 H         1 <0>         0.0664
     51 H21        -2.6072   -2.1917    7.1992 H         1 <0>         0.1405
     52 H22        -2.4624   -5.6485    4.5879 H         1 <0>         0.1471
     53 H23        -0.7949   -4.4684    3.2047 H         1 <0>         0.1363
@<TRIPOS>BOND
     1    1    2 1
     2    1   31 1
     3    1   32 1
     4    1   33 1
     5    2    7 ar
     6    2    3 ar
     7    3    4 ar
     8    3   34 1
     9    4    5 ar
    10    4   35 1
    11    5    6 ar
    12    5   36 1
    13    6    7 ar
    14    7    8 1
    15    8    9 2
    16    8   37 1
    17    9   29 1
    18    9   10 1
    19   10   15 ar
    20   10   11 ar
    21   11   12 ar
    22   11   23 1
    23   12   13 ar
    24   12   38 1
    25   13   14 ar
    26   13   39 1
    27   14   19 1
    28   14   15 ar
    29   15   16 1
    30   16   17 2
    31   16   22 1
    32   17   18 1
    33   17   40 1
    34   18   19 1
    35   18   20 1
    36   18   21 1
    37   19   41 1
    38   20   42 1
    39   20   43 1
    40   20   44 1
    41   21   45 1
    42   21   46 1
    43   21   47 1
    44   22   48 1
    45   22   49 1
    46   22   50 1
    47   23   28 ar
    48   23   24 ar
    49   24   25 ar
    50   24   51 1
    51   25   26 ar
    52   25   30 1
    53   26   27 ar
    54   26   52 1
    55   27   28 ar
    56   27   53 1
    57   28   29 1
@<TRIPOS>MOLECULE
CHEMBL419767
   41    42     0     0     0
SMALL
USER_CHARGES

@<TRIPOS>ATOM
      1 C1          0.0908    1.6057    0.3527 C.3       1 <0>        -0.1475
      2 C2         -0.0260    0.1039    0.0849 C.3       1 <0>         0.1040
      3 C3         -1.4503   -0.3674    0.3019 C.2       1 <0>         0.5219
      4 O1         -2.4404   -0.0064   -0.2974 O.2       1 <0>        -0.4274
      5 N1         -1.3868   -1.2717    1.2992 N.am      1 <0>        -0.4990
      6 C4         -0.1335   -1.4355    1.7378 C.2       1 <0>         0.5268
      7 S1          0.3011   -2.5107    2.9972 S.2       1 <0>        -0.5266
      8 N2          0.7471   -0.6614    1.0782 N.pl3     1 <0>        -0.5447
      9 C5          2.1930   -0.5931    1.3036 C.3       1 <0>         0.1334
     10 C6          2.4961    0.4827    2.3484 C.3       1 <0>        -0.1376
     11 C7          4.0062    0.5540    2.5838 C.3       1 <0>        -0.1165
     12 C8          4.3093    1.6298    3.6286 C.3       1 <0>         0.0762
     13 O2          5.7197    1.6964    3.8484 O.3       1 <0>        -0.5752
     14 C9         -2.4943   -1.9539    1.8126 C.ar      1 <0>         0.1487
     15 C10        -3.1591   -2.8884    1.0258 C.ar      1 <0>        -0.0745
     16 C11        -4.2503   -3.5621    1.5272 C.ar      1 <0>        -0.0548
     17 C12        -4.6897   -3.3062    2.8292 C.ar      1 <0>         0.0285
     18 C13        -4.0188   -2.3665    3.6175 C.ar      1 <0>        -0.0591
     19 C14        -2.9242   -1.7003    3.1099 C.ar      1 <0>        -0.0437
     20 I1         -4.6717   -1.9769    5.5696 I         1 <0>         0.0006
     21 C15        -5.8244   -4.0044    3.3542 C.1       1 <0>         0.2336
     22 N3         -6.7246   -4.5583    3.7706 N.1       1 <0>        -0.3694
     23 C16         0.4436   -0.2265   -1.3333 C.3       1 <0>        -0.1466
     24 H1          1.1371    1.9052    0.2928 H         1 <0>         0.0890
     25 H2         -0.4871    2.1535   -0.3916 H         1 <0>         0.0929
     26 H3         -0.2945    1.8283    1.3478 H         1 <0>         0.0711
     27 H4          2.5509   -1.5584    1.6617 H         1 <0>         0.1151
     28 H5          2.6951   -0.3435    0.3688 H         1 <0>         0.0994
     29 H6          2.1382    1.4480    1.9903 H         1 <0>         0.0711
     30 H7          1.9941    0.2330    3.2832 H         1 <0>         0.0811
     31 H8          4.3641   -0.4113    2.9418 H         1 <0>         0.0787
     32 H9          4.5082    0.8037    1.6490 H         1 <0>         0.0730
     33 H10         3.9514    2.5951    3.2705 H         1 <0>         0.0444
     34 H11         3.8073    1.3801    4.5633 H         1 <0>         0.0478
     35 H12         5.9853    2.3590    4.5007 H         1 <0>         0.3829
     36 H13        -2.8192   -3.0858    0.0198 H         1 <0>         0.1458
     37 H14        -4.7662   -4.2870    0.9151 H         1 <0>         0.1562
     38 H15        -2.4024   -0.9773    3.7194 H         1 <0>         0.1472
     39 H16         1.4885    0.0624   -1.4466 H         1 <0>         0.0880
     40 H17         0.3415   -1.2973   -1.5097 H         1 <0>         0.0720
     41 H18        -0.1647    0.3201   -2.0540 H         1 <0>         0.0933
@<TRIPOS>BOND
     1    1    2 1
     2    1   24 1
     3    1   25 1
     4    1   26 1
     5    2    8 1
     6    2    3 1
     7    2   23 1
     8    3    4 2
     9    3    5 am
    10    5    6 1
    11    5   14 1
    12    6    7 2
    13    6    8 1
    14    8    9 1
    15    9   10 1
    16    9   27 1
    17    9   28 1
    18   10   11 1
    19   10   29 1
    20   10   30 1
    21   11   12 1
    22   11   31 1
    23   11   32 1
    24   12   13 1
    25   12   33 1
    26   12   34 1
    27   13   35 1
    28   14   19 ar
    29   14   15 ar
    30   15   16 ar
    31   15   36 1
    32   16   17 ar
    33   16   37 1
    34   17   18 ar
    35   17   21 1
    36   18   19 ar
    37   18   20 1
    38   19   38 1
    39   21   22 3
    40   23   39 1
    41   23   40 1
    42   23   41 1
@<TRIPOS>MOLECULE
CHEMBL255216
   41    45     0     0     0
SMALL
USER_CHARGES

@<TRIPOS>ATOM
      1 C1         -0.0569    1.6274   -0.4503 C.3       1 <0>        -0.1283
      2 C2         -0.0330    0.1126   -0.2364 C.3       1 <0>         0.1058
      3 C3         -1.4301   -0.5634   -0.0988 C.3       1 <0>        -0.1393
      4 C4         -1.1018   -1.8801    0.6502 C.3       1 <0>        -0.1397
      5 C5          0.4415   -1.7900    0.8452 C.3       1 <0>         0.1062
      6 O1          0.6283   -0.3441    0.9884 O.3       1 <0>        -0.3594
      7 C6          1.0514   -2.0396   -0.5658 C.3       1 <0>        -0.1425
      8 H1          0.6618   -2.9317   -1.0561 H         1 <0>         0.1523
      9 C7          0.7339   -0.7014   -1.3202 C.3       1 <0>        -0.1433
     10 H2          0.1640   -0.8483   -2.2376 H         1 <0>         0.1508
     11 C8          2.0888   -0.0646   -1.5284 C.2       1 <0>         0.5453
     12 O2          2.2855    0.9974   -2.0790 O.2       1 <0>        -0.4615
     13 N1          3.0372   -0.8532   -1.0108 N.am      1 <0>        -0.5321
     14 C9          2.5581   -2.0282   -0.4452 C.2       1 <0>         0.5441
     15 O3          3.2247   -2.8952    0.0777 O.2       1 <0>        -0.4356
     16 C10         4.3938   -0.5282   -1.0517 C.2       1 <0>         0.1541
     17 C11         4.8620    0.5895   -0.3891 C.2       1 <0>        -0.0710
     18 C12         6.2205    0.9019   -0.4388 C.2       1 <0>        -0.0759
     19 C13         7.0918    0.0997   -1.1460 C.2       1 <0>         0.2115
     20 N2          6.6303   -1.0174   -1.8100 N.pl3     1 <0>        -0.2591
     21 C14         5.3000   -1.3432   -1.7664 C.2       1 <0>         0.1065
     22 C15         5.1404   -2.5049   -2.5098 C.2       1 <0>        -0.2563
     23 C16         6.3880   -2.8699   -2.9895 C.2       1 <0>         0.0874
     24 N3          7.2757   -1.9869   -2.5876 N.2       1 <0>        -0.2988
     25 C17         8.4846    0.4292   -1.1913 C.1       1 <0>         0.2474
     26 N4          9.5895    0.6907   -1.2272 N.1       1 <0>        -0.3529
     27 C18         1.0093   -2.6460    1.9791 C.3       1 <0>        -0.1288
     28 H3          0.9647    2.0066   -0.4774 H         1 <0>         0.0738
     29 H4         -0.5535    1.8533   -1.3939 H         1 <0>         0.0855
     30 H5         -0.5988    2.1014    0.3681 H         1 <0>         0.0765
     31 H6         -2.1037    0.0585    0.4907 H         1 <0>         0.0875
     32 H7         -1.8559   -0.7732   -1.0800 H         1 <0>         0.0859
     33 H8         -1.6114   -1.9141    1.6131 H         1 <0>         0.0874
     34 H9         -1.3642   -2.7460    0.0423 H         1 <0>         0.0859
     35 H10         4.1801    1.2183    0.1641 H         1 <0>         0.1595
     36 H11         6.5914    1.7748    0.0777 H         1 <0>         0.1777
     37 H12         4.2121   -3.0291   -2.6828 H         1 <0>         0.1549
     38 H13         6.5959   -3.7334   -3.6040 H         1 <0>         0.2016
     39 H14         0.8075   -3.6978    1.7763 H         1 <0>         0.0859
     40 H15         2.0857   -2.4894    2.0485 H         1 <0>         0.0727
     41 H16         0.5391   -2.3608    2.9202 H         1 <0>         0.0781
@<TRIPOS>BOND
     1    1    2 1
     2    1   28 1
     3    1   29 1
     4    1   30 1
     5    2    6 1
     6    2    9 1
     7    2    3 1
     8    3    4 1
     9    3   31 1
    10    3   32 1
    11    4    5 1
    12    4   33 1
    13    4   34 1
    14    5    6 1
    15    5    7 1
    16    5   27 1
    17    7    8 1
    18    7   14 1
    19    7    9 1
    20    9   10 1
    21    9   11 1
    22   11   12 2
    23   11   13 am
    24   13   14 am
    25   13   16 1
    26   14   15 2
    27   16   21 1
    28   16   17 2
    29   17   18 1
    30   17   35 1
    31   18   19 2
    32   18   36 1
    33   19   20 1
    34   19   25 1
    35   20   24 1
    36   20   21 1
    37   21   22 2
    38   22   23 1
    39   22   37 1
    40   23   24 2
    41   23   38 1
    42   25   26 3
    43   27   39 1
    44   27   40 1
    45   27   41 1
@<TRIPOS>MOLECULE
CHEMBL255216__1
   41    45     0     0     0
SMALL
USER_CHARGES

@<TRIPOS>ATOM
      1 C1         -0.4342    1.6695    0.0615 C.3       1 <0>        -0.1259
      2 C2         -0.2135    0.1572   -0.0108 C.3       1 <0>         0.1125
      3 C3          0.5572   -0.3448   -1.2685 C.3       1 <0>        -0.1581
      4 C4          1.1120   -1.7162   -0.8058 C.3       1 <0>        -0.1593
      5 C5          0.5884   -1.8239    0.6578 C.3       1 <0>         0.1134
      6 O1          0.5934   -0.4177    1.0683 O.3       1 <0>        -0.3440
      7 C6         -0.9389   -2.1004    0.5310 C.3       1 <0>        -0.1499
      8 H1         -1.3918   -2.4690    1.4515 H         1 <0>         0.1493
      9 C7         -1.5044   -0.7096    0.0767 C.3       1 <0>        -0.1403
     10 H2         -2.2652   -0.2908    0.7353 H         1 <0>         0.1526
     11 C8         -1.9883   -0.9917   -1.3272 C.2       1 <0>         0.5453
     12 O2         -2.4945   -0.1780   -2.0695 O.2       1 <0>        -0.4568
     13 N1         -1.7710   -2.2777   -1.6244 N.am      1 <0>        -0.5299
     14 C9         -1.1646   -3.0081   -0.6564 C.2       1 <0>         0.5464
     15 O3         -0.8720   -4.1835   -0.7041 O.2       1 <0>        -0.4407
     16 C10        -2.1156   -2.8360   -2.8561 C.2       1 <0>         0.1452
     17 C11        -1.5090   -2.3932   -4.0152 C.2       1 <0>        -0.0715
     18 C12        -1.8636   -2.9606   -5.2391 C.2       1 <0>        -0.0790
     19 C13        -2.8150   -3.9579   -5.2922 C.2       1 <0>         0.2175
     20 N2         -3.4246   -4.4039   -4.1385 N.pl3     1 <0>        -0.2598
     21 C14        -3.0837   -3.8627   -2.9267 C.2       1 <0>         0.1073
     22 C15        -3.8464   -4.5087   -1.9628 C.2       1 <0>        -0.2540
     23 C16        -4.6379   -5.4426   -2.6117 C.2       1 <0>         0.0888
     24 N3         -4.4014   -5.3797   -3.9037 N.2       1 <0>        -0.2972
     25 C17        -3.1724   -4.5335   -6.5538 C.1       1 <0>         0.2458
     26 N4         -3.4559   -4.9902   -7.5545 N.1       1 <0>        -0.3501
     27 C18         1.3672   -2.7804    1.5631 C.3       1 <0>        -0.1252
     28 H3          0.5276    2.1799    0.0105 H         1 <0>         0.0776
     29 H4         -1.0582    1.9860   -0.7742 H         1 <0>         0.0858
     30 H5         -0.9291    1.9200    0.9999 H         1 <0>         0.0766
     31 H6         -0.1205   -0.4675   -2.1132 H         1 <0>         0.0748
     32 H7          1.3706    0.3358   -1.5202 H         1 <0>         0.0964
     33 H8          0.7105   -2.5223   -1.4198 H         1 <0>         0.0758
     34 H9          2.2018   -1.7190   -0.8272 H         1 <0>         0.0957
     35 H10        -0.7645   -1.6119   -3.9741 H         1 <0>         0.1576
     36 H11        -1.3919   -2.6176   -6.1481 H         1 <0>         0.1784
     37 H12        -3.8262   -4.3178   -0.9000 H         1 <0>         0.1563
     38 H13        -5.3436   -6.1066   -2.1348 H         1 <0>         0.2025
     39 H14         2.4113   -2.4702    1.6067 H         1 <0>         0.0781
     40 H15         0.9401   -2.7604    2.5657 H         1 <0>         0.0766
     41 H16         1.3052   -3.7919    1.1618 H         1 <0>         0.0855
@<TRIPOS>BOND
     1    1    2 1
     2    1   28 1
     3    1   29 1
     4    1   30 1
     5    2    6 1
     6    2    9 1
     7    2    3 1
     8    3    4 1
     9    3   31 1
    10    3   32 1
    11    4    5 1
    12    4   33 1
    13    4   34 1
    14    5    6 1
    15    5    7 1
    16    5   27 1
    17    7    8 1
    18    7   14 1
    19    7    9 1
    20    9   10 1
    21    9   11 1
    22   11   12 2
    23   11   13 am
    24   13   14 am
    25   13   16 1
    26   14   15 2
    27   16   21 1
    28   16   17 2
    29   17   18 1
    30   17   35 1
    31   18   19 2
    32   18   36 1
    33   19   20 1
    34   19   25 1
    35   20   24 1
    36   20   21 1
    37   21   22 2
    38   22   23 1
    39   22   37 1
    40   23   24 2
    41   23   38 1
    42   25   26 3
    43   27   39 1
    44   27   40 1
    45   27   41 1
@<TRIPOS>MOLECULE
CHEMBL382640
   35    38     0     0     0
SMALL
USER_CHARGES

@<TRIPOS>ATOM
      1 C1         -0.0178    1.4608    0.0101 C.3       1 <0>         0.0667
      2 N1          0.0021   -0.0041    0.0020 N.pl3     1 <0>        -0.4288
      3 C2          0.0082   -0.7914   -1.1174 C.2       1 <0>        -0.0220
      4 C3          0.0094   -2.0873   -0.7346 C.2       1 <0>        -0.1696
      5 C4         -0.0006   -2.1017    0.6639 C.2       1 <0>        -0.1264
      6 C5          0.0232   -0.7934    1.0986 C.2       1 <0>         0.0422
      7 C6          0.0925   -0.4219    2.5556 C.3       1 <0>        -0.0449
      8 C7         -0.6097   -1.4668    3.4249 C.3       1 <0>        -0.0294
      9 C8         -0.2868   -2.8643    2.9734 C.2       1 <0>        -0.1936
     10 C9         -0.0219   -3.1869    1.6628 C.2       1 <0>         0.1675
     11 N2          0.1972   -4.5274    1.5484 N.pl3     1 <0>        -0.4639
     12 C10         0.0965   -5.1142    2.7847 C.ar      1 <0>         0.0830
     13 C11        -0.1999   -4.0929    3.7233 C.ar      1 <0>        -0.0694
     14 C12        -0.3594   -4.3837    5.0838 C.ar      1 <0>        -0.0999
     15 C13        -0.2036   -5.7088    5.4631 C.ar      1 <0>         0.0761
     16 C14         0.0963   -6.7040    4.5416 C.ar      1 <0>        -0.1320
     17 C15         0.2445   -6.4360    3.1938 C.ar      1 <0>        -0.1072
     18 O1         -0.3490   -6.0430    6.7732 O.3       1 <0>        -0.5020
     19 C16         0.4942   -5.2325    0.2990 C.3       1 <0>         0.0760
     20 H1          1.0048    1.8381    0.0023 H         1 <0>         0.0772
     21 H2         -0.5450    1.8219   -0.8730 H         1 <0>         0.0880
     22 H3         -0.5280    1.8123    0.9069 H         1 <0>         0.0864
     23 H4          0.0109   -0.4360   -2.1372 H         1 <0>         0.1677
     24 H5          0.0164   -2.9491   -1.3855 H         1 <0>         0.1382
     25 H6          1.1376   -0.3500    2.8569 H         1 <0>         0.0816
     26 H7         -0.3879    0.5456    2.7011 H         1 <0>         0.0758
     27 H8         -0.2892   -1.3434    4.4594 H         1 <0>         0.0793
     28 H9         -1.6873   -1.3133    3.3662 H         1 <0>         0.0696
     29 H10        -0.5923   -3.6129    5.8036 H         1 <0>         0.1344
     30 H11         0.2063   -7.7208    4.8886 H         1 <0>         0.1269
     31 H12         0.4809   -7.2198    2.4895 H         1 <0>         0.1293
     32 H13        -1.2536   -6.2785    7.0210 H         1 <0>         0.3850
     33 H14         1.5727   -5.2562    0.1427 H         1 <0>         0.0712
     34 H15         0.1130   -6.2520    0.3577 H         1 <0>         0.0819
     35 H16         0.0178   -4.7138   -0.5330 H         1 <0>         0.0852
@<TRIPOS>BOND
     1    1    2 1
     2    1   20 1
     3    1   21 1
     4    1   22 1
     5    2    6 1
     6    2    3 1
     7    3    4 2
     8    3   23 1
     9    4    5 1
    10    4   24 1
    11    5   10 1
    12    5    6 2
    13    6    7 1
    14    7    8 1
    15    7   25 1
    16    7   26 1
    17    8    9 1
    18    8   27 1
    19    8   28 1
    20    9   13 1
    21    9   10 2
    22   10   11 1
    23   11   12 1
    24   11   19 1
    25   12   17 ar
    26   12   13 ar
    27   13   14 ar
    28   14   15 ar
    29   14   29 1
    30   15   16 ar
    31   15   18 1
    32   16   17 ar
    33   16   30 1
    34   17   31 1
    35   18   32 1
    36   19   33 1
    37   19   34 1
    38   19   35 1
@<TRIPOS>MOLECULE
CHEMBL351519
   39    41     0     0     0
SMALL
USER_CHARGES

@<TRIPOS>ATOM
      1 C1         -0.0187    1.5258    0.0104 C.3       1 <0>        -0.1673
      2 C2          0.0021   -0.0041    0.0020 C.3       1 <0>         0.1449
      3 H1          0.5208   -0.3694   -0.8843 H         1 <0>         0.0853
      4 C3         -1.4318   -0.5566    0.0457 C.3       1 <0>        -0.0217
      5 C4         -1.4891   -1.3612    1.3259 C.ar      1 <0>        -0.1711
      6 C5         -2.5104   -2.0758    1.8807 C.ar      1 <0>         0.0031
      7 C6         -2.3174   -2.7477    3.0941 C.ar      1 <0>        -0.1697
      8 C7         -3.3647   -3.4964    3.6889 C.2       1 <0>        -0.0578
      9 C8         -3.1373   -4.1331    4.8646 C.2       1 <0>        -0.1719
     10 C9         -1.8744   -4.0502    5.4862 C.2       1 <0>         0.5379
     11 O1         -1.6867   -4.6284    6.5429 O.2       1 <0>        -0.5242
     12 N1         -0.8728   -3.3430    4.9310 N.am      1 <0>        -0.5168
     13 C10        -1.0642   -2.6803    3.7351 C.ar      1 <0>         0.2485
     14 C11        -0.0384   -1.9501    3.1575 C.ar      1 <0>        -0.2408
     15 C12        -0.2443   -1.2859    1.9488 C.ar      1 <0>         0.2679
     16 N2          0.6504   -0.5096    1.2142 N.pl3     1 <0>        -0.7232
     17 C13         0.4287   -3.2756    5.6002 C.3       1 <0>         0.0596
     18 C14        -4.7138   -3.5832    3.0229 C.3       1 <0>         0.5059
     19 F1         -5.5677   -4.3730    3.8003 F         1 <0>        -0.1685
     20 F2         -5.2541   -2.2991    2.8948 F         1 <0>        -0.1679
     21 F3         -4.5720   -4.1581    1.7554 F         1 <0>        -0.1679
     22 C15        -2.4445    0.5894    0.0894 C.3       1 <0>        -0.1402
     23 C16        -1.6941   -1.4570   -1.1632 C.3       1 <0>        -0.1386
     24 H2          1.0039    1.9031    0.0027 H         1 <0>         0.0585
     25 H3         -0.5459    1.8868   -0.8726 H         1 <0>         0.0757
     26 H4         -0.5289    1.8773    0.9072 H         1 <0>         0.0668
     27 H5         -3.4683   -2.1230    1.3840 H         1 <0>         0.1331
     28 H6         -3.9274   -4.7060    5.3272 H         1 <0>         0.1680
     29 H7          0.9240   -1.8953    3.6446 H         1 <0>         0.1354
     30 H8          1.5692   -0.3297    1.4680 H         1 <0>         0.4165
     31 H9          0.3929   -3.8540    6.5233 H         1 <0>         0.1043
     32 H10         1.1963   -3.6858    4.9439 H         1 <0>         0.0786
     33 H11         0.6652   -2.2369    5.8311 H         1 <0>         0.0786
     34 H12        -2.3302    1.2094   -0.7998 H         1 <0>         0.0667
     35 H13        -3.4545    0.1807    0.1200 H         1 <0>         0.0615
     36 H14        -2.2703    1.1946    0.9791 H         1 <0>         0.0625
     37 H15        -0.9922   -2.2909   -1.1542 H         1 <0>         0.0596
     38 H16        -2.7137   -1.8397   -1.1167 H         1 <0>         0.0647
     39 H17        -1.5634   -0.8818   -2.0798 H         1 <0>         0.0641
@<TRIPOS>BOND
     1    1    2 1
     2    1   24 1
     3    1   25 1
     4    1   26 1
     5    2    3 1
     6    2   16 1
     7    2    4 1
     8    4    5 1
     9    4   22 1
    10    4   23 1
    11    5   15 ar
    12    5    6 ar
    13    6    7 ar
    14    6   27 1
    15    7   13 ar
    16    7    8 1
    17    8    9 2
    18    8   18 1
    19    9   10 1
    20    9   28 1
    21   10   11 2
    22   10   12 am
    23   12   13 1
    24   12   17 1
    25   13   14 ar
    26   14   15 ar
    27   14   29 1
    28   15   16 1
    29   16   30 1
    30   17   31 1
    31   17   32 1
    32   17   33 1
    33   18   19 1
    34   18   20 1
    35   18   21 1
    36   22   34 1
    37   22   35 1
    38   22   36 1
    39   23   37 1
    40   23   38 1
    41   23   39 1
@<TRIPOS>MOLECULE
CHEMBL1094797
   50    52     0     0     0
SMALL
USER_CHARGES

@<TRIPOS>ATOM
      1 C1         -0.3927    1.6134   -0.1054 C.3       1 <0>        -0.1526
      2 C2         -0.2593    0.0893   -0.1161 C.3       1 <0>        -0.1240
      3 C3         -1.6452   -0.5450    0.0175 C.3       1 <0>        -0.0996
      4 C4         -1.5138   -2.0462    0.0070 C.2       1 <0>         0.1999
      5 C5         -1.3982   -2.7112    1.1701 C.2       1 <0>        -0.2307
      6 C6         -1.2560   -4.2063    1.2073 C.3       1 <0>         0.0861
      7 H1         -1.8951   -4.6080    1.9936 H         1 <0>         0.0945
      8 C7         -1.6518   -4.8119   -0.1093 C.2       1 <0>        -0.1468
      9 C8         -1.7570   -4.0660   -1.2198 C.2       1 <0>         0.2098
     10 N1         -1.5190   -2.7164   -1.1848 N.pl3     1 <0>        -0.6276
     11 C9         -2.1480   -4.7186   -2.5207 C.3       1 <0>        -0.1322
     12 C10        -1.9223   -6.2163   -0.1809 C.1       1 <0>         0.2630
     13 N2         -2.1369   -7.3304   -0.2377 N.1       1 <0>        -0.4193
     14 C11         0.1782   -4.5609    1.5043 C.ar      1 <0>        -0.0145
     15 C12         1.1872   -4.1571    0.6765 C.ar      1 <0>        -0.1536
     16 C13         2.5056   -4.4965    0.9707 C.ar      1 <0>         0.1337
     17 N3          2.8162   -5.2017    2.0315 N.ar      1 <0>        -0.4730
     18 C14         1.8772   -5.6280    2.8817 C.ar      1 <0>         0.1292
     19 C15         0.5160   -5.3124    2.6452 C.ar      1 <0>        -0.0878
     20 C16        -0.4660   -5.7580    3.5448 C.ar      1 <0>        -0.1032
     21 C17        -0.0986   -6.4830    4.6369 C.ar      1 <0>        -0.1125
     22 C18         1.2399   -6.7894    4.8747 C.ar      1 <0>        -0.1019
     23 C19         2.2161   -6.3844    4.0174 C.ar      1 <0>        -0.0915
     24 C20        -1.4104   -1.9875    2.3844 C.2       1 <0>         0.5312
     25 O1         -0.3643   -1.7347    2.9525 O.2       1 <0>        -0.4844
     26 O2         -2.5821   -1.5770    2.9136 O.3       1 <0>        -0.3513
     27 C21        -2.5197   -0.8506    4.1426 C.3       1 <0>         0.0574
     28 C22        -3.9351   -0.4726    4.5839 C.3       1 <0>        -0.1525
     29 H2          0.5947    2.0653   -0.2005 H         1 <0>         0.0612
     30 H3         -1.0187    1.9292   -0.9399 H         1 <0>         0.0572
     31 H4         -0.8491    1.9316    0.8319 H         1 <0>         0.0563
     32 H5          0.1971   -0.2289   -1.0534 H         1 <0>         0.0674
     33 H6          0.3668   -0.2265    0.7185 H         1 <0>         0.0743
     34 H7         -2.1016   -0.2267    0.9548 H         1 <0>         0.0950
     35 H8         -2.2712   -0.2292   -0.8171 H         1 <0>         0.0923
     36 H9         -1.3497   -2.2357   -2.0101 H         1 <0>         0.4230
     37 H10        -3.2330   -4.7022   -2.6238 H         1 <0>         0.0959
     38 H11        -1.6960   -4.1749   -3.3502 H         1 <0>         0.0856
     39 H12        -1.7978   -5.7508   -2.5290 H         1 <0>         0.0888
     40 H13         0.9627   -3.5755   -0.2054 H         1 <0>         0.1289
     41 H14         3.2929   -4.1704    0.3073 H         1 <0>         0.1582
     42 H15        -1.5066   -5.5265    3.3714 H         1 <0>         0.1260
     43 H16        -0.8545   -6.8250    5.3284 H         1 <0>         0.1278
     44 H17         1.5058   -7.3661    5.7483 H         1 <0>         0.1308
     45 H18         3.2486   -6.6308    4.2164 H         1 <0>         0.1360
     46 H19        -2.0540   -1.4712    4.9082 H         1 <0>         0.0681
     47 H20        -1.9296    0.0547    4.0000 H         1 <0>         0.0677
     48 H21        -4.5252   -1.3778    4.7264 H         1 <0>         0.0672
     49 H22        -3.8876    0.0815    5.5213 H         1 <0>         0.0799
     50 H23        -4.4008    0.1480    3.8183 H         1 <0>         0.0664
@<TRIPOS>BOND
     1    1    2 1
     2    1   29 1
     3    1   30 1
     4    1   31 1
     5    2    3 1
     6    2   32 1
     7    2   33 1
     8    3    4 1
     9    3   34 1
    10    3   35 1
    11    4   10 1
    12    4    5 2
    13    5    6 1
    14    5   24 1
    15    6    7 1
    16    6    8 1
    17    6   14 1
    18    8    9 2
    19    8   12 1
    20    9   10 1
    21    9   11 1
    22   10   36 1
    23   11   37 1
    24   11   38 1
    25   11   39 1
    26   12   13 3
    27   14   19 ar
    28   14   15 ar
    29   15   16 ar
    30   15   40 1
    31   16   17 ar
    32   16   41 1
    33   17   18 ar
    34   18   23 ar
    35   18   19 ar
    36   19   20 ar
    37   20   21 ar
    38   20   42 1
    39   21   22 ar
    40   21   43 1
    41   22   23 ar
    42   22   44 1
    43   23   45 1
    44   24   25 2
    45   24   26 1
    46   26   27 1
    47   27   28 1
    48   27   46 1
    49   27   47 1
    50   28   48 1
    51   28   49 1
    52   28   50 1
@<TRIPOS>MOLECULE
CHEMBL335996
   55    59     0     0     0
SMALL
USER_CHARGES

@<TRIPOS>ATOM
      1 C1          0.2705    1.5755   -0.1635 C.3       1 <0>        -0.1182
      2 C2          0.2265    0.0667   -0.1742 C.2       1 <0>        -0.0588
      3 C3          0.3318   -0.5291   -1.3603 C.2       1 <0>        -0.1678
      4 C4          0.2194   -2.0144   -1.5400 C.3       1 <0>         0.2143
      5 N1          0.4465   -2.7122   -0.2761 N.pl3     1 <0>        -0.7347
      6 C5          0.0961   -2.1295    0.9365 C.ar      1 <0>         0.2262
      7 C6          0.0785   -0.7200    1.0566 C.ar      1 <0>        -0.0669
      8 C7         -0.0123   -0.1890    2.3347 C.ar      1 <0>        -0.0151
      9 C8         -0.5664   -0.9944    3.3747 C.ar      1 <0>        -0.0972
     10 C9         -0.6381   -2.3653    3.2156 C.ar      1 <0>        -0.0513
     11 C10        -0.2513   -2.9288    2.0141 C.ar      1 <0>        -0.1822
     12 C11        -1.0482   -0.2962    4.5853 C.ar      1 <0>        -0.0621
     13 C12        -1.5999   -1.0085    5.6473 C.ar      1 <0>        -0.1185
     14 C13        -2.0491   -0.3361    6.7687 C.ar      1 <0>         0.0788
     15 C14        -1.9549    1.0450    6.8381 C.ar      1 <0>        -0.1227
     16 C15        -1.4066    1.7608    5.7913 C.ar      1 <0>        -0.1057
     17 C16        -0.9451    1.1001    4.6638 C.ar      1 <0>         0.1056
     18 O1         -0.3832    1.8075    3.6450 O.3       1 <0>        -0.2373
     19 C17         0.4592    1.1131    2.8210 C.2       1 <0>         0.0778
     20 C18         1.7002    1.5859    2.5582 C.2       1 <0>        -0.0811
     21 C19         2.0596    2.9604    2.9391 C.ar      1 <0>        -0.0871
     22 C20         1.0600    3.8935    3.2300 C.ar      1 <0>        -0.0591
     23 C21         1.4045    5.1805    3.5869 C.ar      1 <0>        -0.1598
     24 C22         2.7360    5.5524    3.6583 C.ar      1 <0>        -0.0729
     25 C23         3.7343    4.6386    3.3723 C.ar      1 <0>        -0.2135
     26 C24         3.4075    3.3413    3.0181 C.ar      1 <0>         0.1420
     27 O2          4.3880    2.4415    2.7431 O.3       1 <0>        -0.3133
     28 C25         5.7373    2.9011    2.8444 C.3       1 <0>         0.0260
     29 F1         -2.5798   -1.0279    7.8007 F         1 <0>        -0.1372
     30 C26         1.2587   -2.4782   -2.5676 C.3       1 <0>        -0.1547
     31 C27        -1.1797   -2.3566   -2.0646 C.3       1 <0>        -0.1599
     32 H1          1.3031    1.9082   -0.0575 H         1 <0>         0.0725
     33 H2         -0.1402    1.9577   -1.0980 H         1 <0>         0.0670
     34 H3         -0.3196    1.9503    0.6728 H         1 <0>         0.0687
     35 H4          0.5074    0.0935   -2.2312 H         1 <0>         0.1272
     36 H5          0.8515   -3.6038   -0.2815 H         1 <0>         0.4047
     37 H6         -0.9926   -2.9946    4.0178 H         1 <0>         0.1323
     38 H7         -0.2188   -4.0041    1.9112 H         1 <0>         0.1292
     39 H8         -1.6773   -2.0844    5.5972 H         1 <0>         0.1417
     40 H9         -2.3116    1.5642    7.7150 H         1 <0>         0.1452
     41 H10        -1.3389    2.8371    5.8513 H         1 <0>         0.1454
     42 H11         2.4265    0.9537    2.0689 H         1 <0>         0.1460
     43 H12         0.0201    3.6073    3.1751 H         1 <0>         0.1458
     44 H13         0.6321    5.9012    3.8113 H         1 <0>         0.1260
     45 H14         2.9969    6.5622    3.9385 H         1 <0>         0.1251
     46 H15         4.7707    4.9369    3.4300 H         1 <0>         0.1292
     47 H16         5.8933    3.7260    2.1492 H         1 <0>         0.0568
     48 H17         5.9296    3.2420    3.8617 H         1 <0>         0.0567
     49 H18         6.4181    2.0859    2.5996 H         1 <0>         0.1013
     50 H19         2.2582   -2.2274   -2.2121 H         1 <0>         0.0633
     51 H20         1.1809   -3.5571   -2.7015 H         1 <0>         0.0632
     52 H21         1.0760   -1.9797   -3.5195 H         1 <0>         0.0740
     53 H22        -1.3404   -1.8600   -3.0215 H         1 <0>         0.0670
     54 H23        -1.2646   -3.4353   -2.1963 H         1 <0>         0.0610
     55 H24        -1.9290   -2.0179   -1.3491 H         1 <0>         0.0571
@<TRIPOS>BOND
     1    1    2 1
     2    1   32 1
     3    1   33 1
     4    1   34 1
     5    2    7 1
     6    2    3 2
     7    3    4 1
     8    3   35 1
     9    4    5 1
    10    4   30 1
    11    4   31 1
    12    5    6 1
    13    5   36 1
    14    6   11 ar
    15    6    7 ar
    16    7    8 ar
    17    8   19 1
    18    8    9 ar
    19    9   10 ar
    20    9   12 1
    21   10   11 ar
    22   10   37 1
    23   11   38 1
    24   12   17 ar
    25   12   13 ar
    26   13   14 ar
    27   13   39 1
    28   14   15 ar
    29   14   29 1
    30   15   16 ar
    31   15   40 1
    32   16   17 ar
    33   16   41 1
    34   17   18 1
    35   18   19 1
    36   19   20 2
    37   20   21 1
    38   20   42 1
    39   21   26 ar
    40   21   22 ar
    41   22   23 ar
    42   22   43 1
    43   23   24 ar
    44   23   44 1
    45   24   25 ar
    46   24   45 1
    47   25   26 ar
    48   25   46 1
    49   26   27 1
    50   27   28 1
    51   28   47 1
    52   28   48 1
    53   28   49 1
    54   30   50 1
    55   30   51 1
    56   30   52 1
    57   31   53 1
    58   31   54 1
    59   31   55 1
@<TRIPOS>MOLECULE
CHEMBL293409
   44    47     0     0     0
SMALL
USER_CHARGES

@<TRIPOS>ATOM
      1 C1         -0.0188    1.5386    0.0105 C.3       1 <0>        -0.1509
      2 C2          0.0021   -0.0041    0.0020 C.3       1 <0>        -0.0431
      3 C3         -1.4553   -0.4526   -0.0494 C.3       1 <0>        -0.1227
      4 C4         -1.6526   -1.8282    0.5827 C.3       1 <0>         0.1744
      5 N1         -1.1772   -1.7577    1.9719 N.pl3     1 <0>        -0.7376
      6 C5          0.1102   -1.2591    2.1922 C.ar      1 <0>         0.2326
      7 C6          0.7325   -0.4728    1.2264 C.ar      1 <0>        -0.1144
      8 C7          2.0768   -0.1965    1.3799 C.ar      1 <0>        -0.0735
      9 C8          2.7055   -0.4479    2.6066 C.ar      1 <0>        -0.1008
     10 C9          2.0257   -1.0984    3.6266 C.ar      1 <0>        -0.0534
     11 C10         0.7288   -1.5147    3.4085 C.ar      1 <0>        -0.1817
     12 C11         4.0892    0.0496    2.7957 C.ar      1 <0>        -0.0908
     13 C12         4.8668   -0.3531    3.8741 C.ar      1 <0>        -0.0232
     14 C13         6.1526    0.1351    4.0129 C.ar      1 <0>        -0.0729
     15 C14         6.6657    1.0227    3.0836 C.ar      1 <0>        -0.0266
     16 C15         5.8988    1.4294    2.0064 C.ar      1 <0>        -0.1376
     17 C16         4.6114    0.9470    1.8559 C.ar      1 <0>         0.1735
     18 O1          3.8410    1.3367    0.8063 O.3       1 <0>        -0.2996
     19 C17         2.9236    0.3770    0.2763 C.3       1 <0>         0.1012
     20 N2          6.9832   -0.2919    5.1618 N.pl3     1 <0>         0.0382
     21 O2          6.5366   -1.0660    5.9761 O.2       1 <0>        -0.1619
     22 O3          8.1081    0.1335    5.2856 O.3       1 <0>        -0.1586
     23 C18        -0.8692   -2.8911   -0.1884 C.3       1 <0>        -0.1594
     24 C19        -3.1413   -2.1928    0.5757 C.3       1 <0>        -0.1555
     25 H1          1.0037    1.9159    0.0028 H         1 <0>         0.0606
     26 H2         -0.5460    1.8997   -0.8726 H         1 <0>         0.0618
     27 H3         -0.5290    1.8901    0.9073 H         1 <0>         0.0586
     28 H4          0.5223   -0.3392   -0.8931 H         1 <0>         0.0800
     29 H5         -2.0724    0.2808    0.4810 H         1 <0>         0.0713
     30 H6         -1.7849   -0.4801   -1.0922 H         1 <0>         0.0777
     31 H7         -1.7360   -2.0459    2.7029 H         1 <0>         0.4034
     32 H8          2.5023   -1.2751    4.5783 H         1 <0>         0.1305
     33 H9          0.1967   -2.0403    4.1870 H         1 <0>         0.1287
     34 H10         4.4728   -1.0498    4.5989 H         1 <0>         0.1570
     35 H11         7.6706    1.4015    3.2003 H         1 <0>         0.1615
     36 H12         6.3056    2.1225    1.2841 H         1 <0>         0.1587
     37 H13         3.5144   -0.4417   -0.1612 H         1 <0>         0.0754
     38 H14         2.3331    0.8197   -0.5073 H         1 <0>         0.1302
     39 H15         0.1922   -2.6435   -0.1719 H         1 <0>         0.0597
     40 H16        -1.0224   -3.8646    0.2773 H         1 <0>         0.0601
     41 H17        -1.2188   -2.9229   -1.2203 H         1 <0>         0.0671
     42 H18        -3.5058   -2.2120   -0.4514 H         1 <0>         0.0744
     43 H19        -3.2768   -3.1753    1.0278 H         1 <0>         0.0642
     44 H20        -3.6999   -1.4503    1.1456 H         1 <0>         0.0630
@<TRIPOS>BOND
     1    1    2 1
     2    1   25 1
     3    1   26 1
     4    1   27 1
     5    2    7 1
     6    2    3 1
     7    2   28 1
     8    3    4 1
     9    3   29 1
    10    3   30 1
    11    4    5 1
    12    4   23 1
    13    4   24 1
    14    5    6 1
    15    5   31 1
    16    6   11 ar
    17    6    7 ar
    18    7    8 ar
    19    8   19 1
    20    8    9 ar
    21    9   10 ar
    22    9   12 1
    23   10   11 ar
    24   10   32 1
    25   11   33 1
    26   12   17 ar
    27   12   13 ar
    28   13   14 ar
    29   13   34 1
    30   14   15 ar
    31   14   20 1
    32   15   16 ar
    33   15   35 1
    34   16   17 ar
    35   16   36 1
    36   17   18 1
    37   18   19 1
    38   19   37 1
    39   19   38 1
    40   20   21 2
    41   20   22 1
    42   23   39 1
    43   23   40 1
    44   23   41 1
    45   24   42 1
    46   24   43 1
    47   24   44 1
@<TRIPOS>MOLECULE
CHEMBL293409__1
   44    47     0     0     0
SMALL
USER_CHARGES

@<TRIPOS>ATOM
      1 C1         -0.0187    1.5258    0.0104 C.3       1 <0>        -0.1677
      2 C2          0.0021   -0.0041    0.0020 C.3       1 <0>        -0.0483
      3 C3          0.5822   -0.4933   -1.3247 C.3       1 <0>        -0.1203
      4 C4          0.7950   -2.0105   -1.2417 C.3       1 <0>         0.1715
      5 N1          1.7913   -2.2673   -0.1933 N.pl3     1 <0>        -0.7361
      6 C5          1.6843   -1.5871    1.0248 C.ar      1 <0>         0.2368
      7 C6          0.8353   -0.4961    1.1561 C.ar      1 <0>        -0.1297
      8 C7          0.7547    0.1614    2.3668 C.ar      1 <0>        -0.0724
      9 C8          1.5087   -0.2821    3.4553 C.ar      1 <0>        -0.1017
     10 C9          2.3644   -1.3677    3.3193 C.ar      1 <0>        -0.0511
     11 C10         2.4500   -2.0169    2.1047 C.ar      1 <0>        -0.1845
     12 C11         1.3417    0.4191    4.7498 C.ar      1 <0>        -0.0922
     13 C12         2.2178    0.2125    5.8067 C.ar      1 <0>        -0.0228
     14 C13         2.0348    0.9018    6.9904 C.ar      1 <0>        -0.0738
     15 C14         0.9854    1.7942    7.1213 C.ar      1 <0>        -0.0268
     16 C15         0.1046    2.0004    6.0755 C.ar      1 <0>        -0.1391
     17 C16         0.2693    1.3096    4.8873 C.ar      1 <0>         0.1764
     18 O1         -0.6130    1.4597    3.8675 O.3       1 <0>        -0.3042
     19 C17        -0.1316    1.3688    2.5280 C.3       1 <0>         0.0927
     20 N2          2.9641    0.6846    8.1220 N.pl3     1 <0>         0.0387
     21 O2          3.8814   -0.0949    8.0098 O.2       1 <0>        -0.1626
     22 O3          2.8057    1.2867    9.1584 O.3       1 <0>        -0.1593
     23 C18         1.3080   -2.5360   -2.5839 C.3       1 <0>        -0.1544
     24 C19        -0.5232   -2.6999   -0.8838 C.3       1 <0>        -0.1628
     25 H1          0.8733    1.8985    0.5140 H         1 <0>         0.0649
     26 H2         -0.0378    1.8945   -1.0151 H         1 <0>         0.0657
     27 H3         -0.9063    1.8742    0.5384 H         1 <0>         0.0706
     28 H4         -1.0162   -0.3781    0.1084 H         1 <0>         0.0856
     29 H5         -0.1123   -0.2654   -2.1333 H         1 <0>         0.0811
     30 H6          1.5364   -0.0001   -1.5102 H         1 <0>         0.0731
     31 H7          2.5122   -2.8989   -0.3430 H         1 <0>         0.4031
     32 H8          2.9583   -1.7009    4.1575 H         1 <0>         0.1306
     33 H9          3.1133   -2.8618    1.9918 H         1 <0>         0.1289
     34 H10         3.0375   -0.4833    5.7046 H         1 <0>         0.1568
     35 H11         0.8534    2.3341    8.0473 H         1 <0>         0.1609
     36 H12        -0.7114    2.6992    6.1858 H         1 <0>         0.1580
     37 H13         0.4373    2.2671    2.2884 H         1 <0>         0.0837
     38 H14        -0.9781    1.2872    1.8463 H         1 <0>         0.1397
     39 H15         2.2543   -2.0521   -2.8259 H         1 <0>         0.0637
     40 H16         1.4573   -3.6138   -2.5191 H         1 <0>         0.0635
     41 H17         0.5780   -2.3166   -3.3630 H         1 <0>         0.0750
     42 H18        -1.2670   -2.4816   -1.6501 H         1 <0>         0.0673
     43 H19        -0.3661   -3.7769   -0.8263 H         1 <0>         0.0596
     44 H20        -0.8756   -2.3321    0.0798 H         1 <0>         0.0619
@<TRIPOS>BOND
     1    1    2 1
     2    1   25 1
     3    1   26 1
     4    1   27 1
     5    2    7 1
     6    2    3 1
     7    2   28 1
     8    3    4 1
     9    3   29 1
    10    3   30 1
    11    4    5 1
    12    4   23 1
    13    4   24 1
    14    5    6 1
    15    5   31 1
    16    6   11 ar
    17    6    7 ar
    18    7    8 ar
    19    8   19 1
    20    8    9 ar
    21    9   10 ar
    22    9   12 1
    23   10   11 ar
    24   10   32 1
    25   11   33 1
    26   12   17 ar
    27   12   13 ar
    28   13   14 ar
    29   13   34 1
    30   14   15 ar
    31   14   20 1
    32   15   16 ar
    33   15   35 1
    34   16   17 ar
    35   16   36 1
    36   17   18 1
    37   18   19 1
    38   19   37 1
    39   19   38 1
    40   20   21 2
    41   20   22 1
    42   23   39 1
    43   23   40 1
    44   23   41 1
    45   24   42 1
    46   24   43 1
    47   24   44 1
@<TRIPOS>MOLECULE
CHEMBL267260
   39    41     0     0     0
SMALL
USER_CHARGES

@<TRIPOS>ATOM
      1 C1         -0.0168    1.3900    0.0097 C.ar      1 <0>        -0.1131
      2 C2          1.1587    2.1076    0.0023 C.ar      1 <0>        -0.1100
      3 C3          2.3797    1.4418   -0.0129 C.ar      1 <0>         0.1458
      4 C4          2.4044    0.0342   -0.0206 C.ar      1 <0>        -0.0626
      5 C5          1.2051   -0.6848   -0.0130 C.ar      1 <0>        -0.1362
      6 C6          0.0021   -0.0041    0.0020 C.ar      1 <0>         0.1927
      7 N1         -1.2013   -0.7169    0.0101 N.pl3     1 <0>        -0.6165
      8 C7         -2.4780    0.0014    0.0266 C.3       1 <0>         0.1490
      9 C8         -2.9367    0.2592   -1.4101 C.3       1 <0>        -0.1781
     10 C9         -3.0458    1.7156   -1.8663 C.3       1 <0>        -0.1760
     11 C10        -4.3129    0.8977   -1.6085 C.3       1 <0>        -0.1730
     12 C11        -1.1851   -2.1818    0.0021 C.3       1 <0>         0.0818
     13 C12        -1.1651   -2.6995    1.4417 C.3       1 <0>         0.4262
     14 F1         -2.3060   -2.2494    2.1149 F         1 <0>        -0.1821
     15 F2         -1.1496   -4.0983    1.4340 F         1 <0>        -0.1808
     16 F3         -0.0216   -2.2240    2.0925 F         1 <0>        -0.1759
     17 C13         3.6972   -0.6532   -0.0360 C.2       1 <0>        -0.0905
     18 C14         4.8286    0.0940   -0.0424 C.2       1 <0>        -0.1275
     19 C15         4.7501    1.5030   -0.0337 C.2       1 <0>         0.5350
     20 N2          3.5683    2.1439   -0.0200 N.am      1 <0>        -0.6197
     21 O1          5.7797    2.1555   -0.0388 O.2       1 <0>        -0.5224
     22 C16         3.7686   -2.1584   -0.0442 C.3       1 <0>         0.5079
     23 F4          5.1082   -2.5616   -0.0587 F         1 <0>        -0.1675
     24 F5          3.1426   -2.6613    1.1014 F         1 <0>        -0.1640
     25 F6          3.1214   -2.6499   -1.1830 F         1 <0>        -0.1681
     26 H1         -0.9621    1.9121    0.0260 H         1 <0>         0.1400
     27 H2          1.1324    3.1872    0.0080 H         1 <0>         0.1431
     28 H3          1.2186   -1.7647   -0.0193 H         1 <0>         0.1329
     29 H4         -3.2260   -0.5988    0.5446 H         1 <0>         0.0894
     30 H5         -2.3532    0.9525    0.5443 H         1 <0>         0.0856
     31 H6         -2.6123   -0.4762   -2.1463 H         1 <0>         0.1088
     32 H7         -2.7908    2.4900   -1.1429 H         1 <0>         0.0950
     33 H8         -2.7929    1.9385   -2.9029 H         1 <0>         0.0954
     34 H9         -4.8937    0.5827   -2.4754 H         1 <0>         0.0971
     35 H10        -4.8915    1.1341   -0.7155 H         1 <0>         0.0972
     36 H11        -2.0760   -2.5522   -0.5050 H         1 <0>         0.1266
     37 H12        -0.2962   -2.5324   -0.5225 H         1 <0>         0.1211
     38 H13         5.7935   -0.3910   -0.0538 H         1 <0>         0.1724
     39 H14         3.5506    3.1137   -0.0150 H         1 <0>         0.4208
@<TRIPOS>BOND
     1    1    6 ar
     2    1    2 ar
     3    1   26 1
     4    2    3 ar
     5    2   27 1
     6    3   20 1
     7    3    4 ar
     8    4    5 ar
     9    4   17 1
    10    5    6 ar
    11    5   28 1
    12    6    7 1
    13    7    8 1
    14    7   12 1
    15    8    9 1
    16    8   29 1
    17    8   30 1
    18    9   11 1
    19    9   10 1
    20    9   31 1
    21   10   11 1
    22   10   32 1
    23   10   33 1
    24   11   34 1
    25   11   35 1
    26   12   13 1
    27   12   36 1
    28   12   37 1
    29   13   14 1
    30   13   15 1
    31   13   16 1
    32   17   18 2
    33   17   22 1
    34   18   19 1
    35   18   38 1
    36   19   20 am
    37   19   21 2
    38   20   39 1
    39   22   23 1
    40   22   24 1
    41   22   25 1
@<TRIPOS>MOLECULE
CHEMBL267260__1
   38    40     0     0     0
SMALL
USER_CHARGES

@<TRIPOS>ATOM
      1 C1         -0.0169    1.3949    0.0097 C.ar      1 <0>        -0.1296
      2 C2          1.1396    2.1104    0.0025 C.ar      1 <0>        -0.0903
      3 C3          2.3776    1.4453   -0.0133 C.ar      1 <0>         0.1792
      4 C4          2.4039    0.0291   -0.0211 C.ar      1 <0>        -0.1269
      5 C5          1.1985   -0.6883   -0.0125 C.ar      1 <0>        -0.1435
      6 C6          0.0021   -0.0041    0.0020 C.ar      1 <0>         0.1450
      7 N1         -1.2019   -0.7135    0.0097 N.pl3     1 <0>        -0.6215
      8 C7         -2.4770    0.0077    0.0257 C.3       1 <0>         0.1559
      9 C8         -2.9346    0.2665   -1.4112 C.3       1 <0>        -0.1706
     10 C9         -3.0401    1.7231   -1.8674 C.3       1 <0>        -0.1738
     11 C10        -4.3092    0.9082   -1.6101 C.3       1 <0>        -0.1799
     12 C11        -1.1890   -2.1784    0.0017 C.3       1 <0>         0.0906
     13 C12        -1.1707   -2.6961    1.4413 C.3       1 <0>         0.4223
     14 F1         -2.3108   -2.2435    2.1141 F         1 <0>        -0.1879
     15 F2         -1.1584   -4.0951    1.4337 F         1 <0>        -0.1895
     16 F3         -0.0264   -2.2232    2.0925 F         1 <0>        -0.1707
     17 C13         3.6481   -0.6336   -0.0369 C.ar      1 <0>        -0.1331
     18 C14         4.7822    0.1225   -0.0441 C.ar      1 <0>        -0.1492
     19 C15         4.6892    1.5196   -0.0358 C.ar      1 <0>         0.4200
     20 N2          3.5261    2.1328   -0.0206 N.ar      1 <0>        -0.5752
     21 O1          5.8264    2.2584   -0.0426 O.3       1 <0>        -0.6961
     22 C16         3.7224   -2.1388   -0.0452 C.3       1 <0>         0.5087
     23 F4          5.0626   -2.5395   -0.0607 F         1 <0>        -0.1801
     24 F5          3.0982   -2.6427    1.1010 F         1 <0>        -0.1772
     25 F6          3.0752   -2.6314   -1.1835 F         1 <0>        -0.1815
     26 H1         -0.9638    1.9141    0.0261 H         1 <0>         0.1187
     27 H2          1.1066    3.1899    0.0086 H         1 <0>         0.1273
     28 H3          1.2078   -1.7682   -0.0184 H         1 <0>         0.1099
     29 H4         -3.2265   -0.5908    0.5434 H         1 <0>         0.0782
     30 H5         -2.3501    0.9585    0.5434 H         1 <0>         0.0820
     31 H6         -2.6115   -0.4696   -2.1473 H         1 <0>         0.1056
     32 H7         -2.7836    2.4970   -1.1440 H         1 <0>         0.0957
     33 H8         -2.7864    1.9455   -2.9039 H         1 <0>         0.0928
     34 H9         -4.8904    0.5944   -2.4772 H         1 <0>         0.0919
     35 H10        -4.8876    1.1459   -0.7173 H         1 <0>         0.0935
     36 H11        -2.0805   -2.5469   -0.5057 H         1 <0>         0.1141
     37 H12        -0.3007   -2.5311   -0.5225 H         1 <0>         0.1171
     38 H13         5.7508   -0.3551   -0.0559 H         1 <0>         0.1282
@<TRIPOS>BOND
     1    1    6 ar
     2    1    2 ar
     3    1   26 1
     4    2    3 ar
     5    2   27 1
     6    3   20 ar
     7    3    4 ar
     8    4    5 ar
     9    4   17 ar
    10    5    6 ar
    11    5   28 1
    12    6    7 1
    13    7    8 1
    14    7   12 1
    15    8    9 1
    16    8   29 1
    17    8   30 1
    18    9   11 1
    19    9   10 1
    20    9   31 1
    21   10   11 1
    22   10   32 1
    23   10   33 1
    24   11   34 1
    25   11   35 1
    26   12   13 1
    27   12   36 1
    28   12   37 1
    29   13   14 1
    30   13   15 1
    31   13   16 1
    32   17   18 ar
    33   17   22 1
    34   18   19 ar
    35   18   38 1
    36   19   20 ar
    37   19   21 1
    38   22   23 1
    39   22   24 1
    40   22   25 1
@<TRIPOS>MOLECULE
CHEMBL9146
   44    46     0     0     0
SMALL
USER_CHARGES

@<TRIPOS>ATOM
      1 C1         -0.5474    1.2165    0.3511 C.3       1 <0>        -0.1485
      2 C2         -0.2865   -0.2909    0.3270 C.3       1 <0>         0.1228
      3 C3         -1.4729   -1.0466    0.8917 C.2       1 <0>         0.5287
      4 O1         -2.6057   -1.0594    0.4601 O.2       1 <0>        -0.4360
      5 N1         -1.0063   -1.7020    1.9730 N.am      1 <0>        -0.5223
      6 C4          0.2964   -1.4678    2.1678 C.2       1 <0>         0.7059
      7 O2          0.9403   -1.9485    3.0796 O.2       1 <0>        -0.5216
      8 N2          0.8141   -0.6411    1.2414 N.am      1 <0>        -0.6048
      9 C5          2.2020   -0.1794    1.1579 C.3       1 <0>         0.1908
     10 C6          2.9999   -1.1373    0.3113 C.ar      1 <0>        -0.1173
     11 C7          3.5246   -2.2857    0.8747 C.ar      1 <0>        -0.0748
     12 C8          4.2565   -3.1645    0.0985 C.ar      1 <0>        -0.1148
     13 C9          4.4642   -2.8954   -1.2415 C.ar      1 <0>        -0.0749
     14 C10         3.9396   -1.7469   -1.8053 C.ar      1 <0>        -0.1035
     15 C11         3.2024   -0.8705   -1.0296 C.ar      1 <0>        -0.0690
     16 I1          4.2546   -1.3383   -3.8357 I         1 <0>        -0.0371
     17 C12        -1.7878   -2.5247    2.7909 C.ar      1 <0>         0.1641
     18 C13        -1.2489   -3.0555    3.9578 C.ar      1 <0>        -0.1046
     19 C14        -2.0150   -3.8659    4.7656 C.ar      1 <0>        -0.0469
     20 C15        -3.3360   -4.1543    4.4117 C.ar      1 <0>         0.0176
     21 C16        -3.8741   -3.6187    3.2386 C.ar      1 <0>        -0.1204
     22 C17        -3.1029   -2.8050    2.4382 C.ar      1 <0>        -0.0955
     23 C18        -5.2977   -3.9270    2.8520 C.3       1 <0>         0.5067
     24 F1         -5.6043   -3.2823    1.6489 F         1 <0>        -0.1660
     25 F2         -5.4488   -5.3086    2.6924 F         1 <0>        -0.1687
     26 F3         -6.1615   -3.4762    3.8559 F         1 <0>        -0.1686
     27 C19        -4.1359   -4.9970    5.2488 C.1       1 <0>         0.2304
     28 N3         -4.7704   -5.6655    5.9129 N.1       1 <0>        -0.3714
     29 C20         0.0263   -0.7588   -1.0957 C.3       1 <0>        -0.1510
     30 H1          0.3763    1.7488    0.1240 H         1 <0>         0.0846
     31 H2         -1.3032    1.4663   -0.3936 H         1 <0>         0.0907
     32 H3         -0.9012    1.5082    1.3399 H         1 <0>         0.0704
     33 H4          2.2284    0.8126    0.7071 H         1 <0>         0.1032
     34 H5          2.6310   -0.1352    2.1589 H         1 <0>         0.1090
     35 H6          3.3628   -2.4960    1.9216 H         1 <0>         0.1355
     36 H7          4.6665   -4.0613    0.5390 H         1 <0>         0.1340
     37 H8          5.0364   -3.5819   -1.8479 H         1 <0>         0.1309
     38 H9          2.7885    0.0242   -1.4707 H         1 <0>         0.1311
     39 H10        -0.2281   -2.8321    4.2307 H         1 <0>         0.1835
     40 H11        -1.5956   -4.2783    5.6714 H         1 <0>         0.1576
     41 H12        -3.5193   -2.3873    1.5334 H         1 <0>         0.1772
     42 H13         0.9196   -0.2498   -1.4575 H         1 <0>         0.0846
     43 H14         0.1968   -1.8354   -1.0949 H         1 <0>         0.0690
     44 H15        -0.8148   -0.5246   -1.7484 H         1 <0>         0.0892
@<TRIPOS>BOND
     1    1    2 1
     2    1   30 1
     3    1   31 1
     4    1   32 1
     5    2    8 1
     6    2    3 1
     7    2   29 1
     8    3    4 2
     9    3    5 am
    10    5    6 am
    11    5   17 1
    12    6    7 2
    13    6    8 am
    14    8    9 1
    15    9   10 1
    16    9   33 1
    17    9   34 1
    18   10   15 ar
    19   10   11 ar
    20   11   12 ar
    21   11   35 1
    22   12   13 ar
    23   12   36 1
    24   13   14 ar
    25   13   37 1
    26   14   15 ar
    27   14   16 1
    28   15   38 1
    29   17   22 ar
    30   17   18 ar
    31   18   19 ar
    32   18   39 1
    33   19   20 ar
    34   19   40 1
    35   20   21 ar
    36   20   27 1
    37   21   22 ar
    38   21   23 1
    39   22   41 1
    40   23   24 1
    41   23   25 1
    42   23   26 1
    43   27   28 3
    44   29   42 1
    45   29   43 1
    46   29   44 1
@<TRIPOS>MOLECULE
CHEMBL217769
   35    36     0     0     0
SMALL
USER_CHARGES

@<TRIPOS>ATOM
      1 C1         -0.0187    1.5258    0.0104 C.3       1 <0>        -0.1744
      2 C2          0.0021   -0.0041    0.0020 C.3       1 <0>         0.1130
      3 N1         -1.3723   -0.5112    0.0124 N.pl3     1 <0>        -0.6201
      4 C3         -2.0716   -0.7579   -1.2510 C.3       1 <0>         0.0822
      5 C4         -1.8159   -2.1971   -1.7029 C.3       1 <0>         0.4259
      6 F1         -2.2877   -3.0827   -0.7281 F         1 <0>        -0.1760
      7 F2         -2.4837   -2.4327   -2.9094 F         1 <0>        -0.1811
      8 F3         -0.4424   -2.3918   -1.8844 F         1 <0>        -0.1821
      9 C5         -2.0169   -0.7597    1.2286 C.ar      1 <0>         0.1915
     10 C6         -1.3503   -0.5184    2.4297 C.ar      1 <0>        -0.1165
     11 C7         -1.9696   -0.7580    3.6357 C.ar      1 <0>        -0.1091
     12 C8         -3.2726   -1.2449    3.6640 C.ar      1 <0>         0.1449
     13 C9         -3.9499   -1.4897    2.4548 C.ar      1 <0>        -0.0619
     14 C10        -3.3134   -1.2380    1.2350 C.ar      1 <0>        -0.1373
     15 C11        -5.3209   -2.0017    2.5000 C.2       1 <0>        -0.0908
     16 C12        -5.8910   -2.2224    3.7103 C.2       1 <0>        -0.1272
     17 C13        -5.1690   -1.9608    4.8943 C.2       1 <0>         0.5349
     18 N2         -3.9099   -1.4907    4.8636 N.am      1 <0>        -0.6195
     19 O1         -5.7005   -2.1662    5.9719 O.2       1 <0>        -0.5224
     20 C14        -6.0822   -2.2768    1.2288 C.3       1 <0>         0.5078
     21 F4         -7.3585   -2.7553    1.5439 F         1 <0>        -0.1675
     22 F5         -6.1967   -1.0951    0.4888 F         1 <0>        -0.1681
     23 F6         -5.3980   -3.2355    0.4737 F         1 <0>        -0.1639
     24 H1          1.0039    1.9031    0.0027 H         1 <0>         0.0705
     25 H2         -0.5459    1.8868   -0.8726 H         1 <0>         0.0593
     26 H3         -0.5289    1.8773    0.9072 H         1 <0>         0.0614
     27 H4          0.5123   -0.3556   -0.8948 H         1 <0>         0.0844
     28 H5          0.5293   -0.3651    0.8851 H         1 <0>         0.0842
     29 H6         -3.1417   -0.6062   -1.1097 H         1 <0>         0.1207
     30 H7         -1.7041   -0.0678   -2.0105 H         1 <0>         0.1259
     31 H8         -0.3388   -0.1404    2.4135 H         1 <0>         0.1414
     32 H9         -1.4439   -0.5683    4.5599 H         1 <0>         0.1435
     33 H10        -3.8301   -1.4204    0.3043 H         1 <0>         0.1329
     34 H11        -6.9014   -2.5994    3.7684 H         1 <0>         0.1726
     35 H12        -3.4424   -1.3218    5.6966 H         1 <0>         0.4209
@<TRIPOS>BOND
     1    1    2 1
     2    1   24 1
     3    1   25 1
     4    1   26 1
     5    2    3 1
     6    2   27 1
     7    2   28 1
     8    3    4 1
     9    3    9 1
    10    4    5 1
    11    4   29 1
    12    4   30 1
    13    5    6 1
    14    5    7 1
    15    5    8 1
    16    9   14 ar
    17    9   10 ar
    18   10   11 ar
    19   10   31 1
    20   11   12 ar
    21   11   32 1
    22   12   18 1
    23   12   13 ar
    24   13   14 ar
    25   13   15 1
    26   14   33 1
    27   15   16 2
    28   15   20 1
    29   16   17 1
    30   16   34 1
    31   17   18 am
    32   17   19 2
    33   18   35 1
    34   20   21 1
    35   20   22 1
    36   20   23 1
@<TRIPOS>MOLECULE
CHEMBL217769__1
   34    35     0     0     0
SMALL
USER_CHARGES

@<TRIPOS>ATOM
      1 C1         -0.0187    1.5258    0.0104 C.3       1 <0>        -0.1721
      2 C2          0.0021   -0.0041    0.0020 C.3       1 <0>         0.1204
      3 N1         -1.3723   -0.5112    0.0124 N.pl3     1 <0>        -0.6253
      4 C3         -2.0716   -0.7579   -1.2510 C.3       1 <0>         0.0912
      5 C4         -1.8159   -2.1971   -1.7029 C.3       1 <0>         0.4219
      6 F1         -2.2877   -3.0827   -0.7281 F         1 <0>        -0.1708
      7 F2         -2.4837   -2.4327   -2.9094 F         1 <0>        -0.1898
      8 F3         -0.4424   -2.3918   -1.8844 F         1 <0>        -0.1879
      9 C5         -2.0163   -0.7595    1.2275 C.ar      1 <0>         0.1439
     10 C6         -1.3448   -0.5163    2.4311 C.ar      1 <0>        -0.1332
     11 C7         -1.9473   -0.7485    3.6276 C.ar      1 <0>        -0.0891
     12 C8         -3.2636   -1.2406    3.6683 C.ar      1 <0>         0.1784
     13 C9         -3.9489   -1.4889    2.4538 C.ar      1 <0>        -0.1266
     14 C10        -3.3090   -1.2364    1.2307 C.ar      1 <0>        -0.1444
     15 C11        -5.2683   -1.9821    2.4994 C.ar      1 <0>        -0.1331
     16 C12        -5.8339   -2.2011    3.7205 C.ar      1 <0>        -0.1493
     17 C13        -5.1037   -1.9358    4.8849 C.ar      1 <0>         0.4198
     18 N2         -3.8727   -1.4751    4.8366 N.ar      1 <0>        -0.5749
     19 O1         -5.6797   -2.1586    6.0922 O.3       1 <0>        -0.6959
     20 C14        -6.0342   -2.2596    1.2316 C.3       1 <0>         0.5088
     21 F4         -7.3092   -2.7380    1.5522 F         1 <0>        -0.1801
     22 F5         -6.1520   -1.0792    0.4900 F         1 <0>        -0.1815
     23 F6         -5.3526   -3.2192    0.4755 F         1 <0>        -0.1771
     24 H1          1.0039    1.9031    0.0027 H         1 <0>         0.0617
     25 H2         -0.5459    1.8868   -0.8726 H         1 <0>         0.0536
     26 H3         -0.5289    1.8773    0.9072 H         1 <0>         0.0626
     27 H4          0.5123   -0.3556   -0.8948 H         1 <0>         0.0726
     28 H5          0.5293   -0.3651    0.8851 H         1 <0>         0.0802
     29 H6         -3.1417   -0.6062   -1.1097 H         1 <0>         0.1166
     30 H7         -1.7041   -0.0678   -2.0105 H         1 <0>         0.1132
     31 H8         -0.3331   -0.1389    2.4091 H         1 <0>         0.1198
     32 H9         -1.4144   -0.5553    4.5469 H         1 <0>         0.1279
     33 H10        -3.8242   -1.4185    0.2991 H         1 <0>         0.1100
     34 H11        -6.8435   -2.5783    3.7892 H         1 <0>         0.1284
@<TRIPOS>BOND
     1    1    2 1
     2    1   24 1
     3    1   25 1
     4    1   26 1
     5    2    3 1
     6    2   27 1
     7    2   28 1
     8    3    4 1
     9    3    9 1
    10    4    5 1
    11    4   29 1
    12    4   30 1
    13    5    6 1
    14    5    7 1
    15    5    8 1
    16    9   14 ar
    17    9   10 ar
    18   10   11 ar
    19   10   31 1
    20   11   12 ar
    21   11   32 1
    22   12   18 ar
    23   12   13 ar
    24   13   14 ar
    25   13   15 ar
    26   14   33 1
    27   15   16 ar
    28   15   20 1
    29   16   17 ar
    30   16   34 1
    31   17   18 ar
    32   17   19 1
    33   20   21 1
    34   20   22 1
    35   20   23 1
@<TRIPOS>MOLECULE
CHEMBL182993
   38    42     0     0     0
SMALL
USER_CHARGES

@<TRIPOS>ATOM
      1 C1          1.5367    1.4085   -1.1454 C.ar      1 <0>        -0.1055
      2 C2          1.1720    2.0859    0.0039 C.ar      1 <0>        -0.0603
      3 C3          0.8288    1.3835    1.1442 C.ar      1 <0>        -0.1725
      4 C4          0.8493    0.0022    1.1386 C.ar      1 <0>        -0.0497
      5 C5          1.2145   -0.6804   -0.0136 C.ar      1 <0>         0.1098
      6 C6          1.5587    0.0277   -1.1571 C.ar      1 <0>        -0.0682
      7 N1          1.2368   -2.0822   -0.0222 N.am      1 <0>        -0.5293
      8 C7          2.3692   -2.7886   -0.1305 C.2       1 <0>         0.5342
      9 O1          3.4828   -2.3201   -0.2313 O.2       1 <0>        -0.4613
     10 C8          2.0372   -4.2650   -0.1066 C.3       1 <0>        -0.1081
     11 H1          2.3488   -4.7480   -1.0327 H         1 <0>         0.1357
     12 C9          0.5060   -4.2902    0.0349 C.3       1 <0>        -0.1079
     13 H2          0.0458   -4.7855   -0.8201 H         1 <0>         0.1360
     14 C10         0.1278   -2.8254    0.0829 C.2       1 <0>         0.5334
     15 O2         -0.9994   -2.3938    0.1958 O.2       1 <0>        -0.4598
     16 C11         0.0886   -4.9693    1.3463 C.3       1 <0>        -0.0175
     17 C12         0.8360   -4.2598    2.4698 C.2       1 <0>        -0.1636
     18 C13         2.1575   -4.2377    2.3478 C.2       1 <0>        -0.1636
     19 C14         2.7213   -4.9158    1.1032 C.3       1 <0>        -0.0180
     20 C15         2.2109   -6.3798    1.1774 C.3       1 <0>        -0.1494
     21 H3          2.7141   -7.1150    0.5495 H         1 <0>         0.1217
     22 C16         0.6511   -6.4154    1.3054 C.3       1 <0>        -0.1614
     23 H4          0.0607   -7.1645    0.7778 H         1 <0>         0.1289
     24 C17         1.5966   -6.8130    2.5101 C.3       1 <0>        -0.1524
     25 C18         0.4324    2.1253    2.3946 C.3       1 <0>         0.5109
     26 F1          0.4876    3.5029    2.1568 F         1 <0>        -0.1732
     27 F2         -0.8704    1.7665    2.7565 F         1 <0>        -0.1725
     28 F3          1.3120    1.7954    3.4312 F         1 <0>        -0.1740
     29 H5          1.8003    1.9599   -2.0358 H         1 <0>         0.1478
     30 H6          1.1556    3.1657    0.0107 H         1 <0>         0.1480
     31 H7          0.5818   -0.5460    2.0298 H         1 <0>         0.1371
     32 H8          1.8434   -0.5007   -2.0550 H         1 <0>         0.1377
     33 H9         -0.9920   -4.9545    1.4881 H         1 <0>         0.1110
     34 H10         0.3257   -3.8070    3.3070 H         1 <0>         0.1289
     35 H11         2.7971   -3.7650    3.0784 H         1 <0>         0.1277
     36 H12         3.8078   -4.8541    1.0402 H         1 <0>         0.1130
     37 H13         1.6447   -7.8719    2.7639 H         1 <0>         0.0979
     38 H14         1.6867   -6.1253    3.3510 H         1 <0>         0.1085
@<TRIPOS>BOND
     1    1    6 ar
     2    1    2 ar
     3    1   29 1
     4    2    3 ar
     5    2   30 1
     6    3    4 ar
     7    3   25 1
     8    4    5 ar
     9    4   31 1
    10    5    6 ar
    11    5    7 1
    12    6   32 1
    13    7   14 am
    14    7    8 am
    15    8    9 2
    16    8   10 1
    17   10   11 1
    18   10   19 1
    19   10   12 1
    20   12   13 1
    21   12   14 1
    22   12   16 1
    23   14   15 2
    24   16   22 1
    25   16   17 1
    26   16   33 1
    27   17   18 2
    28   17   34 1
    29   18   19 1
    30   18   35 1
    31   19   20 1
    32   19   36 1
    33   20   21 1
    34   20   24 1
    35   20   22 1
    36   22   23 1
    37   22   24 1
    38   24   37 1
    39   24   38 1
    40   25   26 1
    41   25   27 1
    42   25   28 1
@<TRIPOS>MOLECULE
CHEMBL182993__1
   38    42     0     0     0
SMALL
USER_CHARGES

@<TRIPOS>ATOM
      1 C1         -0.0167    1.3769   -0.0098 C.ar      1 <0>        -0.0979
      2 C2          1.1707    2.0859    0.0021 C.ar      1 <0>        -0.0793
      3 C3          2.3796    1.4150    0.0060 C.ar      1 <0>        -0.1641
      4 C4          2.4047    0.0338   -0.0020 C.ar      1 <0>        -0.0949
      5 C5          1.2145   -0.6804   -0.0136 C.ar      1 <0>         0.1167
      6 C6          0.0020   -0.0039   -0.0175 C.ar      1 <0>        -0.1065
      7 N1          1.2367   -2.0794   -0.0222 N.am      1 <0>        -0.5332
      8 C7          2.3746   -2.7934   -0.0903 C.2       1 <0>         0.5413
      9 O1          3.4914   -2.3421    0.0332 O.2       1 <0>        -0.4485
     10 C8          2.0202   -4.2306   -0.3683 C.3       1 <0>        -0.1153
     11 H1          2.3045   -4.4931   -1.3987 H         1 <0>         0.1388
     12 C9          0.4853   -4.2586   -0.2427 C.3       1 <0>        -0.1157
     13 H2          0.0495   -4.5383   -1.2153 H         1 <0>         0.1383
     14 C10         0.1280   -2.8330    0.0829 C.2       1 <0>         0.5435
     15 O2         -0.9692   -2.4204    0.3888 O.2       1 <0>        -0.4506
     16 C11         0.0508   -5.2556    0.8236 C.3       1 <0>        -0.0128
     17 C12         0.6862   -6.5923    0.4114 C.2       1 <0>        -0.1516
     18 C13         2.0099   -6.5684    0.3037 C.2       1 <0>        -0.1507
     19 C14         2.6555   -5.2091    0.6119 C.3       1 <0>        -0.0137
     20 C15         2.2401   -4.9065    2.0655 C.3       1 <0>        -0.1555
     21 H3          2.8389   -5.3975    2.8497 H         1 <0>         0.1235
     22 C16         0.6843   -4.9359    2.1925 C.3       1 <0>        -0.1557
     23 H4          0.2388   -5.4466    3.0614 H         1 <0>         0.1234
     24 C17         1.4620   -3.6520    2.4166 C.3       1 <0>        -0.1730
     25 C18         3.6712    2.1913    0.0185 C.3       1 <0>         0.5111
     26 F1          3.3915    3.5620    0.0244 F         1 <0>        -0.1746
     27 F2          4.4034    1.8599    1.1636 F         1 <0>        -0.1731
     28 F3          4.4179    1.8726   -1.1209 F         1 <0>        -0.1737
     29 H5         -0.9595    1.9036   -0.0087 H         1 <0>         0.1456
     30 H6          1.1536    3.1657    0.0080 H         1 <0>         0.1445
     31 H7          3.3493   -0.4897    0.0003 H         1 <0>         0.1686
     32 H8         -0.9255   -0.5571   -0.0265 H         1 <0>         0.1620
     33 H9         -1.0379   -5.3487    0.8839 H         1 <0>         0.1107
     34 H10         0.0959   -7.4727    0.2277 H         1 <0>         0.1328
     35 H11         2.5935   -7.4278    0.0237 H         1 <0>         0.1328
     36 H12         3.7423   -5.2630    0.4957 H         1 <0>         0.1109
     37 H13         1.5415   -3.3101    3.4683 H         1 <0>         0.1024
     38 H14         1.3890   -2.8334    1.7319 H         1 <0>         0.0935
@<TRIPOS>BOND
     1    1    6 ar
     2    1    2 ar
     3    1   29 1
     4    2    3 ar
     5    2   30 1
     6    3    4 ar
     7    3   25 1
     8    4    5 ar
     9    4   31 1
    10    5    6 ar
    11    5    7 1
    12    6   32 1
    13    7   14 am
    14    7    8 am
    15    8    9 2
    16    8   10 1
    17   10   11 1
    18   10   19 1
    19   10   12 1
    20   12   13 1
    21   12   14 1
    22   12   16 1
    23   14   15 2
    24   16   22 1
    25   16   17 1
    26   16   33 1
    27   17   18 2
    28   17   34 1
    29   18   19 1
    30   18   35 1
    31   19   20 1
    32   19   36 1
    33   20   21 1
    34   20   24 1
    35   20   22 1
    36   22   23 1
    37   22   24 1
    38   24   37 1
    39   24   38 1
    40   25   26 1
    41   25   27 1
    42   25   28 1
@<TRIPOS>MOLECULE
CHEMBL441152
   38    40     0     0     0
SMALL
USER_CHARGES

@<TRIPOS>ATOM
      1 C1         -0.1777    1.4909   -0.0262 C.3       1 <0>        -0.1227
      2 C2          1.3135    1.7639    0.2917 C.3       1 <0>        -0.1241
      3 C3          2.0473    0.7256   -0.5929 C.3       1 <0>        -0.1165
      4 C4          1.1540   -0.5301   -0.5224 C.3       1 <0>         0.0502
      5 C5         -0.2606   -0.0436   -0.1621 C.3       1 <0>        -0.1106
      6 N1          1.1362   -1.2069   -1.8215 N.2       1 <0>        -0.4807
      7 C6          1.7065   -2.3620   -1.9580 C.2       1 <0>         0.1810
      8 C7          1.5971   -3.1425   -3.2514 C.3       1 <0>        -0.0679
      9 C8          1.3487   -4.6114   -2.8847 C.3       1 <0>        -0.0596
     10 C9          2.5135   -5.1389   -2.0612 C.3       1 <0>         0.1774
     11 C10         2.8462   -4.2345   -0.9148 C.2       1 <0>        -0.1248
     12 C11         2.4895   -2.9599   -0.8630 C.2       1 <0>        -0.1432
     13 N2          3.6929   -5.3506   -2.8976 N.am      1 <0>        -0.7123
     14 C12         3.5664   -5.8046   -4.1586 C.2       1 <0>         0.5530
     15 O1          4.5551   -6.0818   -4.8102 O.2       1 <0>        -0.5127
     16 C13         2.2264   -5.9642   -4.7447 C.2       1 <0>        -0.0991
     17 C14         1.1754   -5.4159   -4.1441 C.2       1 <0>        -0.1554
     18 C15        -0.2011   -5.6022   -4.7287 C.3       1 <0>         0.5037
     19 F1         -0.1138   -6.3790   -5.8889 F         1 <0>        -0.1714
     20 F2         -1.0204   -6.2473   -3.7961 F         1 <0>        -0.1696
     21 F3         -0.7469   -4.3532   -5.0437 F         1 <0>        -0.1684
     22 H1         -0.8113    1.8363    0.7906 H         1 <0>         0.0680
     23 H2         -0.4627    1.9726   -0.9615 H         1 <0>         0.0689
     24 H3          1.5898    2.7789    0.0060 H         1 <0>         0.0707
     25 H4          1.5219    1.5883    1.3471 H         1 <0>         0.0683
     26 H5          2.1215    1.0838   -1.6197 H         1 <0>         0.0766
     27 H6          3.0373    0.5127   -0.1897 H         1 <0>         0.0650
     28 H7          1.5230   -1.2081    0.2473 H         1 <0>         0.0620
     29 H8         -0.5782   -0.4854    0.7824 H         1 <0>         0.0668
     30 H9         -0.9604   -0.3110   -0.9538 H         1 <0>         0.0757
     31 H10         0.7642   -2.7630   -3.8434 H         1 <0>         0.1022
     32 H11         0.4412   -4.6831   -2.2853 H         1 <0>         0.1159
     33 H12         2.2262   -6.1080   -1.6533 H         1 <0>         0.0931
     34 H13         3.4110   -4.6414   -0.0891 H         1 <0>         0.1322
     35 H14         2.7696   -2.3568   -0.0120 H         1 <0>         0.1346
     36 H15         4.5750   -5.1626   -2.5407 H         1 <0>         0.4126
     37 H16         2.0975   -6.5243   -5.6590 H         1 <0>         0.1675
     38 H17         2.5247   -3.0539   -3.8167 H         1 <0>         0.0935
@<TRIPOS>BOND
     1    1    5 1
     2    1    2 1
     3    1   22 1
     4    1   23 1
     5    2    3 1
     6    2   24 1
     7    2   25 1
     8    3    4 1
     9    3   26 1
    10    3   27 1
    11    4    5 1
    12    4    6 1
    13    4   28 1
    14    5   29 1
    15    5   30 1
    16    6    7 2
    17    7   12 1
    18    7    8 1
    19    8    9 1
    20    8   31 1
    21    8   38 1
    22    9   17 1
    23    9   10 1
    24    9   32 1
    25   10   11 1
    26   10   13 1
    27   10   33 1
    28   11   12 2
    29   11   34 1
    30   12   35 1
    31   13   14 am
    32   13   36 1
    33   14   15 2
    34   14   16 1
    35   16   17 2
    36   16   37 1
    37   17   18 1
    38   18   19 1
    39   18   20 1
    40   18   21 1
@<TRIPOS>MOLECULE
CHEMBL441152__1
   38    40     0     0     0
SMALL
USER_CHARGES

@<TRIPOS>ATOM
      1 C1          0.0012    1.5606   -0.0105 C.3       1 <0>        -0.1225
      2 C2          1.5048    1.9324    0.0038 C.3       1 <0>        -0.1241
      3 C3          2.1302    0.8627   -0.9254 C.3       1 <0>        -0.1130
      4 C4          1.3467   -0.4258   -0.6002 C.3       1 <0>         0.0482
      5 C5         -0.0070    0.0180   -0.0184 C.3       1 <0>        -0.1126
      6 N1          1.1362   -1.2069   -1.8215 N.2       1 <0>        -0.4827
      7 C6          1.7065   -2.3620   -1.9580 C.2       1 <0>         0.1828
      8 C7          1.5917   -3.1372   -3.2575 C.3       1 <0>        -0.0733
      9 C8          1.4365   -4.6117   -2.8768 C.3       1 <0>        -0.0609
     10 C9          2.6927   -5.0590   -2.1306 C.3       1 <0>         0.1712
     11 C10         2.9319   -4.2023   -0.9291 C.2       1 <0>        -0.1124
     12 C11         2.4873   -2.9524   -0.8584 C.2       1 <0>        -0.1602
     13 N2          2.5833   -6.4760   -1.7977 N.am      1 <0>        -0.7169
     14 C12         2.0003   -7.3107   -2.6899 C.2       1 <0>         0.5534
     15 O1          1.8595   -8.4892   -2.4247 O.2       1 <0>        -0.5098
     16 C13         1.5376   -6.7808   -3.9860 C.2       1 <0>        -0.1006
     17 C14         1.2539   -5.4781   -4.0930 C.2       1 <0>        -0.1596
     18 C15         0.7651   -4.8952   -5.3939 C.3       1 <0>         0.5081
     19 F1          0.6839   -5.9069   -6.3569 F         1 <0>        -0.1715
     20 F2         -0.4999   -4.3286   -5.2050 F         1 <0>        -0.1678
     21 F3          1.6577   -3.9092   -5.8277 F         1 <0>        -0.1674
     22 H1         -0.4941    1.9401    0.8832 H         1 <0>         0.0674
     23 H2         -0.4794    1.9493   -0.9083 H         1 <0>         0.0691
     24 H3          1.6591    2.9329   -0.4002 H         1 <0>         0.0710
     25 H4          1.9124    1.8545    1.0118 H         1 <0>         0.0679
     26 H5          1.9935    1.1386   -1.9710 H         1 <0>         0.0779
     27 H6          3.1886    0.7328   -0.6994 H         1 <0>         0.0655
     28 H7          1.8920   -1.0192    0.1337 H         1 <0>         0.0622
     29 H8         -0.1186   -0.3601    0.9978 H         1 <0>         0.0658
     30 H9         -0.8205   -0.3478   -0.6449 H         1 <0>         0.0740
     31 H10         0.7175   -2.8021   -3.8158 H         1 <0>         0.1024
     32 H11         0.5747   -4.7261   -2.2193 H         1 <0>         0.1131
     33 H12         3.5433   -4.9450   -2.8027 H         1 <0>         0.0965
     34 H13         3.4861   -4.6095   -0.0964 H         1 <0>         0.1332
     35 H14         2.6981   -2.3615    0.0206 H         1 <0>         0.1361
     36 H15         2.9221   -6.8132   -0.9537 H         1 <0>         0.4140
     37 H16         1.4291   -7.4361   -4.8377 H         1 <0>         0.1688
     38 H17         2.4927   -2.9991   -3.8551 H         1 <0>         0.1066
@<TRIPOS>BOND
     1    1    5 1
     2    1    2 1
     3    1   22 1
     4    1   23 1
     5    2    3 1
     6    2   24 1
     7    2   25 1
     8    3    4 1
     9    3   26 1
    10    3   27 1
    11    4    5 1
    12    4    6 1
    13    4   28 1
    14    5   29 1
    15    5   30 1
    16    6    7 2
    17    7   12 1
    18    7    8 1
    19    8    9 1
    20    8   31 1
    21    8   38 1
    22    9   17 1
    23    9   10 1
    24    9   32 1
    25   10   11 1
    26   10   13 1
    27   10   33 1
    28   11   12 2
    29   11   34 1
    30   12   35 1
    31   13   14 am
    32   13   36 1
    33   14   15 2
    34   14   16 1
    35   16   17 2
    36   16   37 1
    37   17   18 1
    38   18   19 1
    39   18   20 1
    40   18   21 1
@<TRIPOS>MOLECULE
CHEMBL441152__2
   38    40     0     0     0
SMALL
USER_CHARGES

@<TRIPOS>ATOM
      1 C1         -0.1845    1.3022    0.2248 C.3       1 <0>        -0.1222
      2 C2          1.2093    1.9451    0.0177 C.3       1 <0>        -0.1245
      3 C3          1.8650    1.0099   -1.0285 C.3       1 <0>        -0.1100
      4 C4          1.3904   -0.4013   -0.6247 C.3       1 <0>         0.0497
      5 C5          0.0873   -0.2155    0.1723 C.3       1 <0>        -0.1156
      6 N1          1.1362   -1.2069   -1.8215 N.2       1 <0>        -0.4836
      7 C6          1.7065   -2.3620   -1.9580 C.2       1 <0>         0.1833
      8 C7          1.5916   -3.1373   -3.2575 C.3       1 <0>        -0.0737
      9 C8          2.9555   -3.7873   -3.5029 C.3       1 <0>        -0.0596
     10 C9          3.2477   -4.7578   -2.3594 C.3       1 <0>         0.1710
     11 C10         3.2015   -4.0560   -1.0402 C.2       1 <0>        -0.1126
     12 C11         2.4873   -2.9524   -0.8584 C.2       1 <0>        -0.1587
     13 N2          4.5254   -5.4221   -2.5982 N.am      1 <0>        -0.7169
     14 C12         4.8550   -5.7615   -3.8666 C.2       1 <0>         0.5535
     15 O1          5.9293   -6.2805   -4.1021 O.2       1 <0>        -0.5096
     16 C13         3.9019   -5.4977   -4.9605 C.2       1 <0>        -0.1004
     17 C14         2.9798   -4.5414   -4.8044 C.2       1 <0>        -0.1594
     18 C15         1.9937   -4.2288   -5.9002 C.3       1 <0>         0.5081
     19 F1          2.2313   -5.0673   -6.9946 F         1 <0>        -0.1714
     20 F2          0.6925   -4.4343   -5.4291 F         1 <0>        -0.1673
     21 F3          2.1417   -2.8946   -6.2942 F         1 <0>        -0.1679
     22 H1         -0.5938    1.5830    1.1953 H         1 <0>         0.0674
     23 H2         -0.8631    1.5962   -0.5759 H         1 <0>         0.0691
     24 H3          1.1133    2.9572   -0.3753 H         1 <0>         0.0712
     25 H4          1.7778    1.9430    0.9477 H         1 <0>         0.0677
     26 H5          1.5175    1.2567   -2.0317 H         1 <0>         0.0791
     27 H6          2.9515    1.0775   -0.9728 H         1 <0>         0.0650
     28 H7          2.1433   -0.8844   -0.0019 H         1 <0>         0.0618
     29 H8          0.2077   -0.6084    1.1818 H         1 <0>         0.0663
     30 H9         -0.7343   -0.7247   -0.3315 H         1 <0>         0.0722
     31 H10         0.8233   -3.9051   -3.1670 H         1 <0>         0.1047
     32 H11         3.7256   -3.0161   -3.5180 H         1 <0>         0.1131
     33 H12         2.4738   -5.5254   -2.3619 H         1 <0>         0.0965
     34 H13         3.7695   -4.4557   -0.2132 H         1 <0>         0.1333
     35 H14         2.4753   -2.4824    0.1139 H         1 <0>         0.1350
     36 H15         5.1267   -5.6163   -1.8623 H         1 <0>         0.4140
     37 H16         3.9480   -6.0689   -5.8759 H         1 <0>         0.1689
     38 H17         1.3487   -2.4596   -4.0759 H         1 <0>         0.1025
@<TRIPOS>BOND
     1    1    5 1
     2    1    2 1
     3    1   22 1
     4    1   23 1
     5    2    3 1
     6    2   24 1
     7    2   25 1
     8    3    4 1
     9    3   26 1
    10    3   27 1
    11    4    5 1
    12    4    6 1
    13    4   28 1
    14    5   29 1
    15    5   30 1
    16    6    7 2
    17    7   12 1
    18    7    8 1
    19    8    9 1
    20    8   31 1
    21    8   38 1
    22    9   17 1
    23    9   10 1
    24    9   32 1
    25   10   11 1
    26   10   13 1
    27   10   33 1
    28   11   12 2
    29   11   34 1
    30   12   35 1
    31   13   14 am
    32   13   36 1
    33   14   15 2
    34   14   16 1
    35   16   17 2
    36   16   37 1
    37   17   18 1
    38   18   19 1
    39   18   20 1
    40   18   21 1
@<TRIPOS>MOLECULE
CHEMBL441152__3
   38    40     0     0     0
SMALL
USER_CHARGES

@<TRIPOS>ATOM
      1 C1         -0.1941    1.2986    0.2230 C.3       1 <0>        -0.1222
      2 C2          1.2022    1.9398    0.0270 C.3       1 <0>        -0.1244
      3 C3          1.8633    1.0064   -1.0174 C.3       1 <0>        -0.1098
      4 C4          1.3837   -0.4051   -0.6207 C.3       1 <0>         0.0498
      5 C5          0.0755   -0.2193    0.1679 C.3       1 <0>        -0.1159
      6 N1          1.1362   -1.2069   -1.8215 N.2       1 <0>        -0.4808
      7 C6          1.7065   -2.3620   -1.9580 C.2       1 <0>         0.1814
      8 C7          1.5971   -3.1425   -3.2514 C.3       1 <0>        -0.0680
      9 C8          2.9830   -3.7244   -3.5582 C.3       1 <0>        -0.0594
     10 C9          3.4115   -4.6516   -2.4313 C.3       1 <0>         0.1772
     11 C10         3.2647   -4.0074   -1.0873 C.2       1 <0>        -0.1247
     12 C11         2.4895   -2.9599   -0.8630 C.2       1 <0>        -0.1436
     13 N2          2.6663   -5.9077   -2.4745 N.am      1 <0>        -0.7123
     14 C12         2.3384   -6.4701   -3.6529 C.2       1 <0>         0.5530
     15 O1          1.8140   -7.5670   -3.6814 O.2       1 <0>        -0.5127
     16 C13         2.6171   -5.7513   -4.9060 C.2       1 <0>        -0.0990
     17 C14         2.9339   -4.4616   -4.8688 C.2       1 <0>        -0.1554
     18 C15         3.2454   -3.7310   -6.1496 C.3       1 <0>         0.5037
     19 F1          3.1364   -4.6146   -7.2288 F         1 <0>        -0.1714
     20 F2          2.3412   -2.6767   -6.3169 F         1 <0>        -0.1683
     21 F3          4.5479   -3.2236   -6.0920 F         1 <0>        -0.1696
     22 H1         -0.6094    1.5774    1.1914 H         1 <0>         0.0676
     23 H2         -0.8668    1.5960   -0.5815 H         1 <0>         0.0691
     24 H3          1.1105    2.9532   -0.3638 H         1 <0>         0.0715
     25 H4          1.7643    1.9341    0.9609 H         1 <0>         0.0679
     26 H5          1.5230    1.2566   -2.0222 H         1 <0>         0.0792
     27 H6          2.9495    1.0720   -0.9541 H         1 <0>         0.0657
     28 H7          2.1315   -0.8912    0.0058 H         1 <0>         0.0616
     29 H8          0.1885   -0.6153    1.1772 H         1 <0>         0.0665
     30 H9         -0.7435   -0.7257   -0.3428 H         1 <0>         0.0717
     31 H10         0.8739   -3.9498   -3.1364 H         1 <0>         0.0933
     32 H11         3.7056   -2.9115   -3.6306 H         1 <0>         0.1159
     33 H12         4.4645   -4.8933   -2.5757 H         1 <0>         0.0932
     34 H13         3.8245   -4.4170   -0.2595 H         1 <0>         0.1322
     35 H14         2.4271   -2.5430    0.1313 H         1 <0>         0.1347
     36 H15         2.4051   -6.3402   -1.6464 H         1 <0>         0.4127
     37 H16         2.5648   -6.2698   -5.8519 H         1 <0>         0.1675
     38 H17         1.2872   -2.4791   -4.0589 H         1 <0>         0.1023
@<TRIPOS>BOND
     1    1    5 1
     2    1    2 1
     3    1   22 1
     4    1   23 1
     5    2    3 1
     6    2   24 1
     7    2   25 1
     8    3    4 1
     9    3   26 1
    10    3   27 1
    11    4    5 1
    12    4    6 1
    13    4   28 1
    14    5   29 1
    15    5   30 1
    16    6    7 2
    17    7   12 1
    18    7    8 1
    19    8    9 1
    20    8   31 1
    21    8   38 1
    22    9   17 1
    23    9   10 1
    24    9   32 1
    25   10   11 1
    26   10   13 1
    27   10   33 1
    28   11   12 2
    29   11   34 1
    30   12   35 1
    31   13   14 am
    32   13   36 1
    33   14   15 2
    34   14   16 1
    35   16   17 2
    36   16   37 1
    37   17   18 1
    38   18   19 1
    39   18   20 1
    40   18   21 1
@<TRIPOS>MOLECULE
CHEMBL394792
   37    38     0     0     0
SMALL
USER_CHARGES

@<TRIPOS>ATOM
      1 C1         -0.0183    1.4978    0.0103 C.2       1 <0>        -0.1212
      2 C2          1.1463    2.1484    0.0027 C.2       1 <0>        -0.1149
      3 C3          2.4124    1.3868   -0.0007 C.2       1 <0>         0.1840
      4 C4          2.4251    0.1201   -0.4468 C.2       1 <0>        -0.2443
      5 C5          1.1304   -0.4804   -0.9175 C.3       1 <0>        -0.0056
      6 C6          0.0021   -0.0041    0.0020 C.3       1 <0>         0.1695
      7 N1         -1.2601   -0.5791   -0.4522 N.am      1 <0>        -0.7168
      8 C7         -1.2607   -1.8529   -0.9129 C.2       1 <0>         0.5540
      9 O1         -2.2865   -2.3503   -1.3361 O.2       1 <0>        -0.5100
     10 C8         -0.0085   -2.6323   -0.8981 C.2       1 <0>        -0.1056
     11 C9          1.1623   -1.9833   -0.9069 C.2       1 <0>        -0.1515
     12 C10         2.4688   -2.7344   -0.9066 C.3       1 <0>         0.5085
     13 F1          2.2157   -4.1103   -0.8958 F         1 <0>        -0.1717
     14 F2          3.1973   -2.4033   -2.0542 F         1 <0>        -0.1666
     15 F3          3.2062   -2.3870    0.2303 F         1 <0>        -0.1689
     16 N2          3.5897    1.9810    0.4581 N.pl3     1 <0>        -0.6127
     17 C11         3.5716    3.3628    0.9443 C.3       1 <0>         0.0801
     18 C12         3.2843    3.3710    2.4471 C.3       1 <0>         0.4302
     19 F4          4.2820    2.6541    3.1165 F         1 <0>        -0.1817
     20 F5          3.2670    4.6905    2.9114 F         1 <0>        -0.1786
     21 F6          2.0413    2.7757    2.6875 F         1 <0>        -0.1756
     22 C13         4.8431    1.2226    0.4532 C.3       1 <0>         0.0784
     23 C14         5.5604    1.4315   -0.8820 C.3       1 <0>         0.4299
     24 F7          5.8378    2.7918   -1.0545 F         1 <0>        -0.1827
     25 F8          6.7573    0.7072   -0.8867 F         1 <0>        -0.1777
     26 F9          4.7419    0.9864   -1.9257 F         1 <0>        -0.1731
     27 H1         -0.9533    2.0380    0.0265 H         1 <0>         0.1446
     28 H2          1.1636    3.2283   -0.0014 H         1 <0>         0.1350
     29 H3          3.3413   -0.4515   -0.4670 H         1 <0>         0.1339
     30 H4          0.9205   -0.1330   -1.9291 H         1 <0>         0.1137
     31 H5          0.1972   -0.3603    1.0135 H         1 <0>         0.0963
     32 H6         -2.0797   -0.0611   -0.4246 H         1 <0>         0.4145
     33 H7         -0.0359   -3.7118   -0.8802 H         1 <0>         0.1682
     34 H8          4.5401    3.8266    0.7570 H         1 <0>         0.1289
     35 H9          2.7943    3.9214    0.4228 H         1 <0>         0.1292
     36 H10         5.4808    1.5693    1.2663 H         1 <0>         0.1299
     37 H11         4.6270    0.1627    0.5876 H         1 <0>         0.1305
@<TRIPOS>BOND
     1    1    6 1
     2    1    2 2
     3    1   27 1
     4    2    3 1
     5    2   28 1
     6    3    4 2
     7    3   16 1
     8    4    5 1
     9    4   29 1
    10    5   11 1
    11    5    6 1
    12    5   30 1
    13    6    7 1
    14    6   31 1
    15    7    8 am
    16    7   32 1
    17    8    9 2
    18    8   10 1
    19   10   11 2
    20   10   33 1
    21   11   12 1
    22   12   13 1
    23   12   14 1
    24   12   15 1
    25   16   17 1
    26   16   22 1
    27   17   18 1
    28   17   34 1
    29   17   35 1
    30   18   19 1
    31   18   20 1
    32   18   21 1
    33   22   23 1
    34   22   36 1
    35   22   37 1
    36   23   24 1
    37   23   25 1
    38   23   26 1
@<TRIPOS>MOLECULE
CHEMBL394792__1
   37    38     0     0     0
SMALL
USER_CHARGES

@<TRIPOS>ATOM
      1 C1         -0.0183    1.4994    0.0103 C.2       1 <0>        -0.1338
      2 C2          1.1116    2.1918    0.0032 C.2       1 <0>        -0.1214
      3 C3          2.4067    1.4874    0.0148 C.2       1 <0>         0.2036
      4 C4          2.4589    0.1987    0.3567 C.2       1 <0>        -0.2554
      5 C5          1.2089   -0.5364    0.7572 C.3       1 <0>         0.0033
      6 C6          0.0021   -0.0041    0.0020 C.3       1 <0>         0.1751
      7 N1         -1.2428   -0.5211    0.5655 N.am      1 <0>        -0.7153
      8 C7         -1.3715   -0.7082    1.8922 C.2       1 <0>         0.5551
      9 O1         -2.4454   -1.0323    2.3619 O.2       1 <0>        -0.5143
     10 C8         -0.2074   -0.5184    2.7714 C.2       1 <0>        -0.1149
     11 C9          1.0081   -0.4244    2.2434 C.2       1 <0>        -0.1440
     12 C10         2.1973   -0.2040    3.1425 C.3       1 <0>         0.5039
     13 F1          1.7695   -0.1327    4.4725 F         1 <0>        -0.1756
     14 F2          3.0948   -1.2673    2.9977 F         1 <0>        -0.1721
     15 F3          2.8316    0.9927    2.7918 F         1 <0>        -0.1634
     16 N2          3.5761    2.1673   -0.3316 N.pl3     1 <0>        -0.6124
     17 C11         3.5169    3.5821   -0.7072 C.3       1 <0>         0.0801
     18 C12         3.6874    4.4490    0.5420 C.3       1 <0>         0.4287
     19 F4          4.9249    4.1751    1.1343 F         1 <0>        -0.1810
     20 F5          3.6309    5.8000    0.1834 F         1 <0>        -0.1789
     21 F6          2.6624    4.1644    1.4506 F         1 <0>        -0.1749
     22 C13         4.8622    1.4659   -0.3195 C.3       1 <0>         0.0790
     23 C14         5.1187    0.8474   -1.6952 C.3       1 <0>         0.4314
     24 F7          5.1475    1.8576   -2.6626 F         1 <0>        -0.1825
     25 F8          6.3468    0.1775   -1.6837 F         1 <0>        -0.1781
     26 F9          4.0962   -0.0585   -1.9973 F         1 <0>        -0.1746
     27 H1         -0.9640    2.0207    0.0266 H         1 <0>         0.1359
     28 H2          1.0838    3.2713   -0.0114 H         1 <0>         0.1310
     29 H3          3.4057   -0.3208    0.3455 H         1 <0>         0.1307
     30 H4          1.3261   -1.5890    0.4998 H         1 <0>         0.1178
     31 H5          0.0674   -0.3412   -1.0325 H         1 <0>         0.1194
     32 H6         -1.9847   -0.7314   -0.0229 H         1 <0>         0.4148
     33 H7         -0.3403   -0.4554    3.8413 H         1 <0>         0.1640
     34 H8          4.3155    3.8039   -1.4151 H         1 <0>         0.1292
     35 H9          2.5527    3.7955   -1.1686 H         1 <0>         0.1296
     36 H10         5.6588    2.1717   -0.0842 H         1 <0>         0.1292
     37 H11         4.8397    0.6788    0.4342 H         1 <0>         0.1308
@<TRIPOS>BOND
     1    1    6 1
     2    1    2 2
     3    1   27 1
     4    2    3 1
     5    2   28 1
     6    3    4 2
     7    3   16 1
     8    4    5 1
     9    4   29 1
    10    5   11 1
    11    5    6 1
    12    5   30 1
    13    6    7 1
    14    6   31 1
    15    7    8 am
    16    7   32 1
    17    8    9 2
    18    8   10 1
    19   10   11 2
    20   10   33 1
    21   11   12 1
    22   12   13 1
    23   12   14 1
    24   12   15 1
    25   16   17 1
    26   16   22 1
    27   17   18 1
    28   17   34 1
    29   17   35 1
    30   18   19 1
    31   18   20 1
    32   18   21 1
    33   22   23 1
    34   22   36 1
    35   22   37 1
    36   23   24 1
    37   23   25 1
    38   23   26 1
@<TRIPOS>MOLECULE
CHEMBL394792__2
   37    38     0     0     0
SMALL
USER_CHARGES

@<TRIPOS>ATOM
      1 C1         -0.0183    1.4994    0.0103 C.2       1 <0>        -0.1328
      2 C2          1.1116    2.1918    0.0032 C.2       1 <0>        -0.1196
      3 C3          2.4062    1.4877   -0.0407 C.2       1 <0>         0.2041
      4 C4          2.4517    0.2027   -0.3973 C.2       1 <0>        -0.2573
      5 C5          1.1942   -0.5281   -0.7817 C.3       1 <0>         0.0035
      6 C6          0.0021   -0.0041    0.0020 C.3       1 <0>         0.1751
      7 N1         -1.2534   -0.5151   -0.5431 N.am      1 <0>        -0.7156
      8 C7         -1.4073   -0.6884   -1.8690 C.2       1 <0>         0.5551
      9 O1         -2.4898   -1.0080   -2.3217 O.2       1 <0>        -0.5148
     10 C8         -0.2600   -0.4891   -2.7682 C.2       1 <0>        -0.1174
     11 C9          0.9651   -0.4002   -2.2625 C.2       1 <0>        -0.1422
     12 C10         2.1368   -0.1691   -3.1816 C.3       1 <0>         0.5009
     13 F1          1.6837   -0.0837   -4.5024 F         1 <0>        -0.1783
     14 F2          2.7769    1.0243   -2.8301 F         1 <0>        -0.1521
     15 F3          3.0376   -1.2331   -3.0654 F         1 <0>        -0.1711
     16 N2          3.5821    2.1643    0.2898 N.pl3     1 <0>        -0.6122
     17 C11         3.5303    3.5752    0.6806 C.3       1 <0>         0.0797
     18 C12         3.3480    3.6782    2.1962 C.3       1 <0>         0.4304
     19 F4          4.4234    3.0555    2.8387 F         1 <0>        -0.1820
     20 F5          3.2985    5.0256    2.5694 F         1 <0>        -0.1786
     21 F6          2.1552    3.0477    2.5663 F         1 <0>        -0.1759
     22 C13         4.8677    1.4631    0.2456 C.3       1 <0>         0.0800
     23 C14         5.4795    1.6072   -1.1493 C.3       1 <0>         0.4219
     24 F7          5.6776    2.9625   -1.4339 F         1 <0>        -0.1839
     25 F8          6.7072    0.9376   -1.1914 F         1 <0>        -0.1811
     26 F9          4.6134    1.0531   -2.0979 F         1 <0>        -0.1612
     27 H1         -0.9640    2.0207    0.0267 H         1 <0>         0.1355
     28 H2          1.0842    3.2711    0.0292 H         1 <0>         0.1296
     29 H3          3.3986   -0.3166   -0.4104 H         1 <0>         0.1309
     30 H4          1.3162   -1.5835   -0.5379 H         1 <0>         0.1170
     31 H5          0.0871   -0.3523    1.0314 H         1 <0>         0.1187
     32 H6         -1.9838   -0.7322    0.0570 H         1 <0>         0.4146
     33 H7         -0.4131   -0.4156   -3.8347 H         1 <0>         0.1635
     34 H8          4.4597    4.0664    0.3923 H         1 <0>         0.1288
     35 H9          2.6924    4.0604    0.1800 H         1 <0>         0.1288
     36 H10         5.5425    1.8948    0.9848 H         1 <0>         0.1275
     37 H11         4.7134    0.4071    0.4674 H         1 <0>         0.1305
@<TRIPOS>BOND
     1    1    6 1
     2    1    2 2
     3    1   27 1
     4    2    3 1
     5    2   28 1
     6    3    4 2
     7    3   16 1
     8    4    5 1
     9    4   29 1
    10    5   11 1
    11    5    6 1
    12    5   30 1
    13    6    7 1
    14    6   31 1
    15    7    8 am
    16    7   32 1
    17    8    9 2
    18    8   10 1
    19   10   11 2
    20   10   33 1
    21   11   12 1
    22   12   13 1
    23   12   14 1
    24   12   15 1
    25   16   17 1
    26   16   22 1
    27   17   18 1
    28   17   34 1
    29   17   35 1
    30   18   19 1
    31   18   20 1
    32   18   21 1
    33   22   23 1
    34   22   36 1
    35   22   37 1
    36   23   24 1
    37   23   25 1
    38   23   26 1
@<TRIPOS>MOLECULE
CHEMBL394792__3
   37    38     0     0     0
SMALL
USER_CHARGES

@<TRIPOS>ATOM
      1 C1         -0.0183    1.4978    0.0103 C.2       1 <0>        -0.1222
      2 C2          1.1463    2.1484    0.0027 C.2       1 <0>        -0.1182
      3 C3          2.4121    1.3870   -0.0264 C.2       1 <0>         0.1837
      4 C4          2.4333    0.1155    0.4058 C.2       1 <0>        -0.2430
      5 C5          1.1477   -0.4901    0.8947 C.3       1 <0>        -0.0058
      6 C6          0.0021   -0.0041    0.0020 C.3       1 <0>         0.1693
      7 N1         -1.2512   -0.5840    0.4741 N.am      1 <0>        -0.7169
      8 C7         -1.2431   -1.8627    0.9210 C.2       1 <0>         0.5541
      9 O1         -2.2610   -2.3651    1.3576 O.2       1 <0>        -0.5102
     10 C8          0.0084   -2.6418    0.8739 C.2       1 <0>        -0.1066
     11 C9          1.1792   -1.9929    0.8673 C.2       1 <0>        -0.1504
     12 C10         2.4854   -2.7438    0.8331 C.3       1 <0>         0.5069
     13 F1          2.2320   -4.1195    0.8125 F         1 <0>        -0.1722
     14 F2          3.2001   -2.3840   -0.3145 F         1 <0>        -0.1626
     15 F3          3.2365   -2.4248    1.9694 F         1 <0>        -0.1698
     16 N2          3.5806    1.9862   -0.5011 N.pl3     1 <0>        -0.6130
     17 C11         3.5533    3.3731   -0.9721 C.3       1 <0>         0.0807
     18 C12         3.8502    4.3146    0.1969 C.3       1 <0>         0.4291
     19 F4          5.1150    4.0244    0.7197 F         1 <0>        -0.1811
     20 F5          3.8242    5.6391   -0.2529 F         1 <0>        -0.1780
     21 F6          2.8830    4.1411    1.1926 F         1 <0>        -0.1771
     22 C13         4.8337    1.2278   -0.5283 C.3       1 <0>         0.0787
     23 C14         4.9636    0.5053   -1.8707 C.3       1 <0>         0.4300
     24 F7          4.9642    1.4444   -2.9076 F         1 <0>        -0.1832
     25 F8          6.1603   -0.2189   -1.8966 F         1 <0>        -0.1781
     26 F9          3.8850   -0.3704   -2.0351 F         1 <0>        -0.1702
     27 H1         -0.9533    2.0380    0.0265 H         1 <0>         0.1448
     28 H2          1.1638    3.2282    0.0173 H         1 <0>         0.1367
     29 H3          3.3494   -0.4564    0.4017 H         1 <0>         0.1343
     30 H4          0.9572   -0.1536    1.9138 H         1 <0>         0.1131
     31 H5          0.1778   -0.3494   -1.0168 H         1 <0>         0.0970
     32 H6         -2.0711   -0.0656    0.4682 H         1 <0>         0.4144
     33 H7         -0.0194   -3.7211    0.8456 H         1 <0>         0.1680
     34 H8          4.3069    3.5083   -1.7479 H         1 <0>         0.1295
     35 H9          2.5679    3.5992   -1.3794 H         1 <0>         0.1299
     36 H10         5.6741    1.9101   -0.4001 H         1 <0>         0.1292
     37 H11         4.8333    0.4962    0.2796 H         1 <0>         0.1294
@<TRIPOS>BOND
     1    1    6 1
     2    1    2 2
     3    1   27 1
     4    2    3 1
     5    2   28 1
     6    3    4 2
     7    3   16 1
     8    4    5 1
     9    4   29 1
    10    5   11 1
    11    5    6 1
    12    5   30 1
    13    6    7 1
    14    6   31 1
    15    7    8 am
    16    7   32 1
    17    8    9 2
    18    8   10 1
    19   10   11 2
    20   10   33 1
    21   11   12 1
    22   12   13 1
    23   12   14 1
    24   12   15 1
    25   16   17 1
    26   16   22 1
    27   17   18 1
    28   17   34 1
    29   17   35 1
    30   18   19 1
    31   18   20 1
    32   18   21 1
    33   22   23 1
    34   22   36 1
    35   22   37 1
    36   23   24 1
    37   23   25 1
    38   23   26 1
@<TRIPOS>MOLECULE
CHEMBL151601
   58    60     0     0     0
SMALL
USER_CHARGES

@<TRIPOS>ATOM
      1 C1         -0.0263    1.5154   -0.0197 C.3       1 <0>        -0.1470
      2 C2          0.0054   -0.0142   -0.0043 C.3       1 <0>         0.1228
      3 C3         -1.3948   -0.5751    0.1455 C.2       1 <0>         0.5296
      4 O1         -2.3277   -0.4283   -0.6148 O.2       1 <0>        -0.4358
      5 N1         -1.3868   -1.2717    1.2992 N.am      1 <0>        -0.5217
      6 C4         -0.1886   -1.2293    1.8929 C.2       1 <0>         0.7074
      7 O2          0.0639   -1.7826    2.9451 O.2       1 <0>        -0.5162
      8 N2          0.7055   -0.5060    1.1950 N.am      1 <0>        -0.6084
      9 C5          2.1030   -0.2565    1.5567 C.3       1 <0>         0.2667
     10 C6          2.1885    0.9680    2.3691 C.1       1 <0>        -0.1850
     11 C7          2.2566    1.9447    3.0170 C.1       1 <0>        -0.1448
     12 C8          2.3421    3.1692    3.8294 C.3       1 <0>         0.1725
     13 O3          3.7053    3.4126    4.1823 O.3       1 <0>        -0.3758
     14 C9          3.8999    4.5848    4.9760 C.3       1 <0>         0.1050
     15 C10         5.3658    4.7428    5.2877 C.ar      1 <0>        -0.1131
     16 C11         5.8958    4.1576    6.4262 C.ar      1 <0>        -0.0511
     17 C12         7.2371    4.2952    6.7224 C.ar      1 <0>        -0.1577
     18 C13         8.0644    5.0221    5.8792 C.ar      1 <0>         0.1812
     19 C14         7.5323    5.6152    4.7264 C.ar      1 <0>        -0.1746
     20 C15         6.1741    5.4639    4.4361 C.ar      1 <0>        -0.0464
     21 C16         8.4024    6.3907    3.8218 C.2       1 <0>         0.5629
     22 O4          9.5849    6.5167    4.0756 O.2       1 <0>        -0.5224
     23 N3          7.8866    6.9596    2.7142 N.am      1 <0>        -0.8527
     24 O5          9.3825    5.1585    6.1692 O.3       1 <0>        -0.4775
     25 C17        -2.4946   -1.9541    1.8128 C.ar      1 <0>         0.1638
     26 C18        -2.3566   -2.7452    2.9480 C.ar      1 <0>        -0.1044
     27 C19        -3.4448   -3.4185    3.4567 C.ar      1 <0>        -0.0466
     28 C20        -4.6894   -3.3056    2.8306 C.ar      1 <0>         0.0179
     29 C21        -4.8241   -2.5093    1.6902 C.ar      1 <0>        -0.1208
     30 C22        -3.7319   -1.8350    1.1903 C.ar      1 <0>        -0.0948
     31 C23        -6.1636   -2.3846    1.0111 C.3       1 <0>         0.5070
     32 F1         -6.0469   -1.5408   -0.0987 F         1 <0>        -0.1661
     33 F2         -6.5939   -3.6484    0.5929 F         1 <0>        -0.1685
     34 F3         -7.0934   -1.8487    1.9086 F         1 <0>        -0.1687
     35 C24        -5.8233   -4.0045    3.3561 C.1       1 <0>         0.2305
     36 N4         -6.7229   -4.5590    3.7730 N.1       1 <0>        -0.3712
     37 C25         0.6706   -0.5501   -1.2736 C.3       1 <0>        -0.1488
     38 H1          0.9937    1.8999   -0.0236 H         1 <0>         0.0839
     39 H2         -0.5475    1.8590   -0.9132 H         1 <0>         0.0893
     40 H3         -0.5475    1.8770    0.8666 H         1 <0>         0.0684
     41 H4          2.4861   -1.1005    2.1302 H         1 <0>         0.1212
     42 H5          2.6964   -0.1336    0.6507 H         1 <0>         0.1186
     43 H6          1.9590    4.0132    3.2559 H         1 <0>         0.0803
     44 H7          1.7487    3.0463    4.7354 H         1 <0>         0.0789
     45 H8          3.5491    5.4582    4.4262 H         1 <0>         0.0659
     46 H9          3.3388    4.4913    5.9058 H         1 <0>         0.0669
     47 H10         5.2557    3.5906    7.0859 H         1 <0>         0.1344
     48 H11         7.6427    3.8366    7.6122 H         1 <0>         0.1408
     49 H12         5.7575    5.9150    3.5477 H         1 <0>         0.1317
     50 H13         6.9433    6.8591    2.5117 H         1 <0>         0.3993
     51 H14         8.4587    7.4694    2.1195 H         1 <0>         0.4068
     52 H15         9.9417    4.4643    5.7944 H         1 <0>         0.3995
     53 H16        -1.3946   -2.8319    3.4313 H         1 <0>         0.1831
     54 H17        -3.3367   -4.0333    4.3380 H         1 <0>         0.1577
     55 H18        -3.8361   -1.2162    0.3114 H         1 <0>         0.1773
     56 H19         1.6965   -0.1858   -1.3277 H         1 <0>         0.0856
     57 H20         0.6728   -1.6398   -1.2503 H         1 <0>         0.0720
     58 H21         0.1165   -0.2064   -2.1470 H         1 <0>         0.0909
@<TRIPOS>BOND
     1    1    2 1
     2    1   38 1
     3    1   39 1
     4    1   40 1
     5    2    8 1
     6    2    3 1
     7    2   37 1
     8    3    4 2
     9    3    5 am
    10    5    6 am
    11    5   25 1
    12    6    7 2
    13    6    8 am
    14    8    9 1
    15    9   10 1
    16    9   41 1
    17    9   42 1
    18   10   11 3
    19   11   12 1
    20   12   13 1
    21   12   43 1
    22   12   44 1
    23   13   14 1
    24   14   15 1
    25   14   45 1
    26   14   46 1
    27   15   20 ar
    28   15   16 ar
    29   16   17 ar
    30   16   47 1
    31   17   18 ar
    32   17   48 1
    33   18   19 ar
    34   18   24 1
    35   19   20 ar
    36   19   21 1
    37   20   49 1
    38   21   22 2
    39   21   23 am
    40   23   50 1
    41   23   51 1
    42   24   52 1
    43   25   30 ar
    44   25   26 ar
    45   26   27 ar
    46   26   53 1
    47   27   28 ar
    48   27   54 1
    49   28   29 ar
    50   28   35 1
    51   29   30 ar
    52   29   31 1
    53   30   55 1
    54   31   32 1
    55   31   33 1
    56   31   34 1
    57   35   36 3
    58   37   56 1
    59   37   57 1
    60   37   58 1
@<TRIPOS>MOLECULE
CHEMBL1215549
   42    43     0     0     0
SMALL
USER_CHARGES

@<TRIPOS>ATOM
      1 C1         -0.4276    1.6215   -0.1082 C.3       1 <0>        -0.1524
      2 C2         -0.2839    0.0983   -0.1210 C.3       1 <0>        -0.1232
      3 C3         -1.6646   -0.5455    0.0209 C.3       1 <0>        -0.0993
      4 C4         -1.5230   -2.0457    0.0082 C.2       1 <0>         0.1995
      5 C5         -1.3982   -2.7112    1.1701 C.2       1 <0>        -0.2314
      6 C6         -1.2635   -4.2070    1.2060 C.3       1 <0>         0.0830
      7 C7         -0.9001   -4.7418   -0.1500 C.2       1 <0>        -0.1418
      8 C8         -1.0434   -3.9979   -1.2576 C.2       1 <0>         0.2059
      9 N1         -1.5286   -2.7147   -1.1843 N.pl3     1 <0>        -0.6311
     10 C9         -0.6738   -4.5794   -2.5979 C.3       1 <0>        -0.1333
     11 C10        -0.3890   -6.0747   -0.2630 C.1       1 <0>         0.2629
     12 N2          0.0165   -7.1321   -0.3527 N.1       1 <0>        -0.4184
     13 C11        -2.5722   -4.8126    1.6437 C.ar      1 <0>        -0.0843
     14 C12        -3.7162   -4.5989    0.8975 C.ar      1 <0>        -0.0541
     15 C13        -4.9168   -5.1536    1.2977 C.ar      1 <0>        -0.1462
     16 C14        -4.9746   -5.9242    2.4470 C.ar      1 <0>         0.1153
     17 C15        -3.8292   -6.1386    3.1939 C.ar      1 <0>        -0.1449
     18 C16        -2.6270   -5.5868    2.7889 C.ar      1 <0>        -0.0029
     19 Cl1        -1.1885   -5.8601    3.7216 Cl        1 <0>        -0.0484
     20 F1         -6.1485   -6.4659    2.8391 F         1 <0>        -0.1310
     21 C17        -1.3933   -1.9873    2.3843 C.2       1 <0>         0.5332
     22 O1         -0.3403   -1.7470    2.9451 O.2       1 <0>        -0.4914
     23 O2         -2.5562   -1.5627    2.9215 O.3       1 <0>        -0.3473
     24 C18        -2.4766   -0.8369    4.1499 C.3       1 <0>         0.0296
     25 H1          0.5560    2.0801   -0.2093 H         1 <0>         0.0609
     26 H2         -1.0611    1.9337   -0.9384 H         1 <0>         0.0571
     27 H3         -0.8801    1.9358    0.8323 H         1 <0>         0.0566
     28 H4          0.1686   -0.2160   -1.0615 H         1 <0>         0.0681
     29 H5          0.3496   -0.2139    0.7092 H         1 <0>         0.0731
     30 H6         -2.1171   -0.2311    0.9614 H         1 <0>         0.0951
     31 H7         -2.2981   -0.2332   -0.8094 H         1 <0>         0.0909
     32 H8         -0.4861   -4.4802    1.9196 H         1 <0>         0.1019
     33 H9         -1.8727   -2.2803   -1.9804 H         1 <0>         0.4240
     34 H10        -1.5438   -5.0711   -3.0330 H         1 <0>         0.0941
     35 H11        -0.3385   -3.7812   -3.2602 H         1 <0>         0.0863
     36 H12         0.1283   -5.3063   -2.4698 H         1 <0>         0.0895
     37 H13        -3.6715   -3.9977    0.0014 H         1 <0>         0.1376
     38 H14        -5.8102   -4.9859    0.7145 H         1 <0>         0.1436
     39 H15        -3.8733   -6.7390    4.0905 H         1 <0>         0.1478
     40 H16        -1.8766    0.0612    4.0031 H         1 <0>         0.0611
     41 H17        -3.4794   -0.5554    4.4712 H         1 <0>         0.1027
     42 H18        -2.0131   -1.4629    4.9124 H         1 <0>         0.0618
@<TRIPOS>BOND
     1    1    2 1
     2    1   25 1
     3    1   26 1
     4    1   27 1
     5    2    3 1
     6    2   28 1
     7    2   29 1
     8    3    4 1
     9    3   30 1
    10    3   31 1
    11    4    9 1
    12    4    5 2
    13    5    6 1
    14    5   21 1
    15    6    7 1
    16    6   13 1
    17    6   32 1
    18    7    8 2
    19    7   11 1
    20    8    9 1
    21    8   10 1
    22    9   33 1
    23   10   34 1
    24   10   35 1
    25   10   36 1
    26   11   12 3
    27   13   18 ar
    28   13   14 ar
    29   14   15 ar
    30   14   37 1
    31   15   16 ar
    32   15   38 1
    33   16   17 ar
    34   16   20 1
    35   17   18 ar
    36   17   39 1
    37   18   19 1
    38   21   22 2
    39   21   23 1
    40   23   24 1
    41   24   40 1
    42   24   41 1
    43   24   42 1
@<TRIPOS>MOLECULE
CHEMBL1215549__1
   42    43     0     0     0
SMALL
USER_CHARGES

@<TRIPOS>ATOM
      1 C1         -0.3925    1.6134   -0.1053 C.3       1 <0>        -0.1529
      2 C2         -0.2591    0.0892   -0.1160 C.3       1 <0>        -0.1240
      3 C3         -1.6451   -0.5449    0.0175 C.3       1 <0>        -0.0997
      4 C4         -1.5137   -2.0462    0.0070 C.2       1 <0>         0.1975
      5 C5         -1.3982   -2.7112    1.1701 C.2       1 <0>        -0.2299
      6 C6         -1.2561   -4.2063    1.2073 C.3       1 <0>         0.0837
      7 C7         -1.6519   -4.8119   -0.1093 C.2       1 <0>        -0.1444
      8 C8         -1.7570   -4.0660   -1.2198 C.2       1 <0>         0.2067
      9 N1         -1.5189   -2.7164   -1.1848 N.pl3     1 <0>        -0.6284
     10 C9         -2.1480   -4.7186   -2.5207 C.3       1 <0>        -0.1320
     11 C10        -1.9224   -6.2163   -0.1809 C.1       1 <0>         0.2633
     12 N2         -2.1371   -7.3304   -0.2378 N.1       1 <0>        -0.4188
     13 C11         0.1779   -4.5610    1.5054 C.ar      1 <0>        -0.0782
     14 C12         1.1843   -4.1421    0.6551 C.ar      1 <0>        -0.0545
     15 C13         2.4996   -4.4667    0.9273 C.ar      1 <0>        -0.1464
     16 C14         2.8103   -5.2120    2.0524 C.ar      1 <0>         0.1147
     17 C15         1.8027   -5.6311    2.9040 C.ar      1 <0>        -0.1444
     18 C16         0.4870   -5.3007    2.6328 C.ar      1 <0>         0.0006
     19 Cl1        -0.7768   -5.8206    3.7034 Cl        1 <0>        -0.0519
     20 F1          4.0960   -5.5303    2.3185 F         1 <0>        -0.1315
     21 C17        -1.4104   -1.9875    2.3844 C.2       1 <0>         0.5306
     22 O1         -0.3643   -1.7347    2.9525 O.2       1 <0>        -0.4844
     23 O2         -2.5821   -1.5770    2.9136 O.3       1 <0>        -0.3519
     24 C18        -2.5197   -0.8506    4.1426 C.3       1 <0>         0.0299
     25 H1          0.5949    2.0652   -0.2004 H         1 <0>         0.0609
     26 H2         -1.0184    1.9292   -0.9399 H         1 <0>         0.0571
     27 H3         -0.8489    1.9316    0.8320 H         1 <0>         0.0566
     28 H4          0.1973   -0.2290   -1.0533 H         1 <0>         0.0670
     29 H5          0.3669   -0.2266    0.7186 H         1 <0>         0.0746
     30 H6         -2.1015   -0.2267    0.9548 H         1 <0>         0.0952
     31 H7         -2.2710   -0.2291   -0.8171 H         1 <0>         0.0923
     32 H8         -1.8952   -4.6080    1.9936 H         1 <0>         0.0998
     33 H9         -1.3496   -2.2357   -2.0101 H         1 <0>         0.4228
     34 H10        -3.2330   -4.7022   -2.6238 H         1 <0>         0.0956
     35 H11        -1.6959   -4.1749   -3.3502 H         1 <0>         0.0850
     36 H12        -1.7978   -5.7508   -2.5290 H         1 <0>         0.0889
     37 H13         0.9423   -3.5612   -0.2225 H         1 <0>         0.1352
     38 H14         3.2852   -4.1394    0.2625 H         1 <0>         0.1426
     39 H15         2.0440   -6.2127    3.7815 H         1 <0>         0.1473
     40 H16        -1.9296    0.0547    4.0000 H         1 <0>         0.0610
     41 H17        -3.5281   -0.5813    4.4570 H         1 <0>         0.1026
     42 H18        -2.0540   -1.4712    4.9082 H         1 <0>         0.0620
@<TRIPOS>BOND
     1    1    2 1
     2    1   25 1
     3    1   26 1
     4    1   27 1
     5    2    3 1
     6    2   28 1
     7    2   29 1
     8    3    4 1
     9    3   30 1
    10    3   31 1
    11    4    9 1
    12    4    5 2
    13    5    6 1
    14    5   21 1
    15    6    7 1
    16    6   13 1
    17    6   32 1
    18    7    8 2
    19    7   11 1
    20    8    9 1
    21    8   10 1
    22    9   33 1
    23   10   34 1
    24   10   35 1
    25   10   36 1
    26   11   12 3
    27   13   18 ar
    28   13   14 ar
    29   14   15 ar
    30   14   37 1
    31   15   16 ar
    32   15   38 1
    33   16   17 ar
    34   16   20 1
    35   17   18 ar
    36   17   39 1
    37   18   19 1
    38   21   22 2
    39   21   23 1
    40   23   24 1
    41   24   40 1
    42   24   41 1
    43   24   42 1
@<TRIPOS>MOLECULE
CHEMBL426623
   52    57     0     0     0
SMALL
USER_CHARGES

@<TRIPOS>ATOM
      1 C1         -0.3212    1.3468   -1.0609 C.ar      1 <0>        -0.0944
      2 C2          0.8242    2.1357   -1.1480 C.ar      1 <0>        -0.0843
      3 C3          2.0590    1.6036   -0.9378 C.ar      1 <0>        -0.1143
      4 C4          2.1846    0.2382   -0.6280 C.ar      1 <0>        -0.0077
      5 C5          1.0195   -0.5631   -0.5396 C.ar      1 <0>        -0.0372
      6 C6         -0.2375    0.0210   -0.7629 C.ar      1 <0>        -0.0959
      7 C7          1.1451   -1.9332   -0.2287 C.ar      1 <0>         0.1956
      8 C8          2.3973   -2.4669   -0.0168 C.ar      1 <0>        -0.1010
      9 C9          3.5350   -1.6701   -0.1058 C.ar      1 <0>        -0.0285
     10 C10         3.4433   -0.3448   -0.4043 C.ar      1 <0>        -0.0194
     11 N1          4.6687    0.4810   -0.4936 N.pl3     1 <0>         0.0298
     12 O1          5.6759    0.0179   -0.9760 O.2       1 <0>        -0.1413
     13 O2          4.6623    1.6185   -0.0841 O.3       1 <0>        -0.1437
     14 N2          0.0078   -2.7430   -0.1360 N.am      1 <0>        -0.5569
     15 C11        -0.5313   -3.4321   -1.1765 C.2       1 <0>         0.5294
     16 O3         -0.0739   -3.5845   -2.2889 O.2       1 <0>        -0.4255
     17 C12        -1.8214   -3.9601   -0.6282 C.3       1 <0>         0.0296
     18 H1         -2.6600   -3.3169   -0.8950 H         1 <0>         0.1507
     19 C13        -2.1306   -5.4404   -0.9274 C.3       1 <0>         0.1666
     20 H2         -2.4582   -5.6655   -1.9423 H         1 <0>         0.1554
     21 C14        -3.2024   -5.6147    0.2224 C.3       1 <0>        -0.1410
     22 C15        -2.2202   -5.1763    1.3695 C.3       1 <0>         0.1833
     23 H3         -2.6251   -5.1283    2.3804 H         1 <0>         0.1605
     24 N3         -1.5604   -3.9434    0.8343 N.am      1 <0>        -0.6453
     25 C16        -0.6932   -2.9460    0.9996 C.2       1 <0>         0.7470
     26 O4         -0.5558   -2.3083    2.0251 O.2       1 <0>        -0.4989
     27 C17        -1.0944   -6.2390    1.0837 C.3       1 <0>         0.0823
     28 N4         -1.0069   -6.2656   -0.4126 N.am      1 <0>        -0.6089
     29 C18        -0.0966   -6.9202   -1.1606 C.2       1 <0>         0.6644
     30 O5         -0.1533   -6.8644   -2.3732 O.2       1 <0>        -0.5310
     31 O6          0.8757   -7.6360   -0.5642 O.3       1 <0>        -0.3008
     32 C19         1.8349   -8.1907   -1.3523 C.ar      1 <0>         0.0895
     33 C20         1.8030   -9.5487   -1.6329 C.ar      1 <0>        -0.0824
     34 C21         2.7778  -10.1109   -2.4342 C.ar      1 <0>        -0.1386
     35 C22         3.7867   -9.3195   -2.9567 C.ar      1 <0>         0.1097
     36 C23         3.8197   -7.9638   -2.6774 C.ar      1 <0>        -0.1370
     37 C24         2.8429   -7.3980   -1.8811 C.ar      1 <0>        -0.0872
     38 F1          4.7400   -9.8707   -3.7394 F         1 <0>        -0.1316
     39 H4         -1.2897    1.7945   -1.2278 H         1 <0>         0.1383
     40 H5          0.7306    3.1850   -1.3862 H         1 <0>         0.1410
     41 H6          2.9380    2.2271   -1.0090 H         1 <0>         0.1524
     42 H7         -1.1336   -0.5784   -0.6983 H         1 <0>         0.1271
     43 H8          2.4973   -3.5155    0.2214 H         1 <0>         0.1499
     44 H9          4.5064   -2.1101    0.0651 H         1 <0>         0.1606
     45 H10        -4.0430   -4.9295    0.1125 H         1 <0>         0.1136
     46 H11        -3.5299   -6.6487    0.3302 H         1 <0>         0.1198
     47 H12        -0.1451   -5.9176    1.5122 H         1 <0>         0.0845
     48 H13        -1.3811   -7.2163    1.4721 H         1 <0>         0.0992
     49 H14         1.0166  -10.1663   -1.2249 H         1 <0>         0.1433
     50 H15         2.7532  -11.1682   -2.6528 H         1 <0>         0.1481
     51 H16         4.6072   -7.3476   -3.0856 H         1 <0>         0.1464
     52 H17         2.8665   -6.3398   -1.6667 H         1 <0>         0.1349
@<TRIPOS>BOND
     1    1    6 ar
     2    1    2 ar
     3    1   39 1
     4    2    3 ar
     5    2   40 1
     6    3    4 ar
     7    3   41 1
     8    4   10 ar
     9    4    5 ar
    10    5    6 ar
    11    5    7 ar
    12    6   42 1
    13    7    8 ar
    14    7   14 1
    15    8    9 ar
    16    8   43 1
    17    9   10 ar
    18    9   44 1
    19   10   11 1
    20   11   12 2
    21   11   13 1
    22   14   25 am
    23   14   15 am
    24   15   16 2
    25   15   17 1
    26   17   18 1
    27   17   24 1
    28   17   19 1
    29   19   20 1
    30   19   28 1
    31   19   21 1
    32   21   22 1
    33   21   45 1
    34   21   46 1
    35   22   23 1
    36   22   24 1
    37   22   27 1
    38   24   25 am
    39   25   26 2
    40   27   28 1
    41   27   47 1
    42   27   48 1
    43   28   29 am
    44   29   30 2
    45   29   31 1
    46   31   32 1
    47   32   37 ar
    48   32   33 ar
    49   33   34 ar
    50   33   49 1
    51   34   35 ar
    52   34   50 1
    53   35   36 ar
    54   35   38 1
    55   36   37 ar
    56   36   51 1
    57   37   52 1
@<TRIPOS>MOLECULE
CHEMBL482549
   42    44     0     0     0
SMALL
USER_CHARGES

@<TRIPOS>ATOM
      1 C1         -0.7912   -2.8304   -2.5823 C.3       1 <0>        -0.1251
      2 C2         -0.4681   -2.2097   -1.2476 C.ar      1 <0>        -0.0645
      3 C3         -0.0449   -0.8859   -1.1809 C.ar      1 <0>         0.1844
      4 C4          0.2547   -0.3084    0.0495 C.ar      1 <0>        -0.1080
      5 C5          0.1337   -1.0452    1.2059 C.ar      1 <0>        -0.0533
      6 C6         -0.2912   -2.3757    1.1442 C.ar      1 <0>         0.0193
      7 C7         -0.5975   -2.9519   -0.0940 C.ar      1 <0>         0.0052
      8 Cl1        -1.1324   -4.6014   -0.1768 Cl        1 <0>        -0.0220
      9 C8         -0.4177   -3.1453    2.3451 C.1       1 <0>         0.2271
     10 N1         -0.5180   -3.7558    3.2979 N.1       1 <0>        -0.3608
     11 N2          0.0798   -0.1374   -2.3478 N.pl3     1 <0>        -0.6841
     12 C9          1.3233    0.0996   -3.1084 C.3       1 <0>         0.1392
     13 H1          1.8831    0.9296   -2.6773 H         1 <0>         0.1057
     14 C10         0.8272    0.4587   -4.5265 C.3       1 <0>         0.0339
     15 H2          0.6574   -0.4197   -5.1492 H         1 <0>         0.1722
     16 C11         1.7998    1.4621   -5.1686 C.3       1 <0>         0.0981
     17 H3          2.8095    1.3032   -4.7899 H         1 <0>         0.1127
     18 C12         1.2896    2.8562   -4.7560 C.3       1 <0>        -0.1776
     19 C13         0.0643    2.5884   -3.8602 C.3       1 <0>         0.0025
     20 N3         -0.4259    1.2243   -4.2443 N.4       1 <0>        -0.3990
     21 C14        -1.0029    0.5597   -3.0569 C.3       1 <0>         0.4491
     22 N4         -1.6063    1.5665   -2.1736 N.3       1 <0>        -0.5598
     23 C15        -2.4672    0.9532   -1.2104 C.1       1 <0>         0.3375
     24 N5         -3.1511    0.4661   -0.4453 N.1       1 <0>        -0.3364
     25 O1          1.7798    1.3281   -6.5912 O.3       1 <0>        -0.5548
     26 C16         2.1823   -1.1660   -3.1411 C.3       1 <0>        -0.1664
     27 H4         -1.8624   -2.7537   -2.7689 H         1 <0>         0.0819
     28 H5         -0.2471   -2.3063   -3.3680 H         1 <0>         0.0742
     29 H6         -0.4978   -3.8802   -2.5754 H         1 <0>         0.0879
     30 H7          0.5829    0.7194    0.0970 H         1 <0>         0.1431
     31 H8          0.3671   -0.5960    2.1599 H         1 <0>         0.1550
     32 H9          2.0578    3.3898   -4.1964 H         1 <0>         0.1229
     33 H10         0.9965    3.4277   -5.6368 H         1 <0>         0.1155
     34 H11         0.3547    2.6010   -2.8097 H         1 <0>         0.1289
     35 H12        -0.7101    3.3323   -4.0475 H         1 <0>         0.1511
     36 H13        -1.7618   -0.1587   -3.3670 H         1 <0>         0.1616
     37 H14        -0.8963    2.1230   -1.7215 H         1 <0>         0.3915
     38 H15         2.3742    1.9360   -7.0519 H         1 <0>         0.4080
     39 H16         1.6708   -1.9375   -3.7167 H         1 <0>         0.0772
     40 H17         3.1421   -0.9418   -3.6065 H         1 <0>         0.0866
     41 H18         2.3460   -1.5205   -2.1234 H         1 <0>         0.0848
     42 H19        -1.0570    1.2426   -5.0313 H         1 <0>         0.4548
@<TRIPOS>BOND
     1    1    2 1
     2    1   27 1
     3    1   28 1
     4    1   29 1
     5    2    7 ar
     6    2    3 ar
     7    3    4 ar
     8    3   11 1
     9    4    5 ar
    10    4   30 1
    11    5    6 ar
    12    5   31 1
    13    6    7 ar
    14    6    9 1
    15    7    8 1
    16    9   10 3
    17   11   21 1
    18   11   12 1
    19   12   13 1
    20   12   14 1
    21   12   26 1
    22   14   15 1
    23   14   20 1
    24   14   16 1
    25   16   17 1
    26   16   18 1
    27   16   25 1
    28   18   19 1
    29   18   32 1
    30   18   33 1
    31   19   20 1
    32   19   34 1
    33   19   35 1
    34   20   21 1
    35   20   42 1
    36   21   22 1
    37   21   36 1
    38   22   23 1
    39   22   37 1
    40   23   24 3
    41   25   38 1
    42   26   39 1
    43   26   40 1
    44   26   41 1
@<TRIPOS>MOLECULE
CHEMBL482549__1
   41    43     0     0     0
SMALL
USER_CHARGES

@<TRIPOS>ATOM
      1 C1         -0.7959   -2.8326   -2.5868 C.3       1 <0>        -0.1196
      2 C2         -0.4718   -2.2141   -1.2514 C.ar      1 <0>        -0.0751
      3 C3         -0.0474   -0.8908   -1.1829 C.ar      1 <0>         0.2200
      4 C4          0.2531   -0.3153    0.0483 C.ar      1 <0>        -0.1217
      5 C5          0.1321   -1.0537    1.2036 C.ar      1 <0>        -0.0535
      6 C6         -0.2939   -2.3837    1.1401 C.ar      1 <0>        -0.0105
      7 C7         -0.6013   -2.9579   -0.0988 C.ar      1 <0>         0.0102
      8 Cl1        -1.1375   -4.6068   -0.1838 Cl        1 <0>        -0.0399
      9 C8         -0.4206   -3.1550    2.3400 C.1       1 <0>         0.2449
     10 N1         -0.5210   -3.7669    3.2918 N.1       1 <0>        -0.3890
     11 N2          0.0773   -0.1406   -2.3487 N.pl3     1 <0>        -0.7078
     12 C9          1.3209    0.0968   -3.1095 C.3       1 <0>         0.1298
     13 H1          1.8813    0.9261   -2.6778 H         1 <0>         0.0743
     14 C10         0.8235    0.4577   -4.5265 C.3       1 <0>         0.0522
     15 H2          0.6483   -0.4205   -5.1478 H         1 <0>         0.1259
     16 C11         1.7978    1.4558   -5.1732 C.3       1 <0>         0.1087
     17 H3          2.8072    1.2963   -4.7941 H         1 <0>         0.0717
     18 C12         1.2912    2.8531   -4.7673 C.3       1 <0>        -0.1619
     19 C13         0.0675    2.5928   -3.8674 C.3       1 <0>         0.0234
     20 N3         -0.4264    1.2273   -4.2412 N.3       1 <0>        -0.4486
     21 C14        -1.0052    0.5583   -3.0565 C.3       1 <0>         0.4587
     22 N4         -1.6101    1.5617   -2.1705 N.3       1 <0>        -0.5557
     23 C15        -2.4706    0.9446   -1.2095 C.1       1 <0>         0.3491
     24 N5         -3.1542    0.4544   -0.4460 N.1       1 <0>        -0.3986
     25 O1          1.7772    1.3151   -6.5951 O.3       1 <0>        -0.5554
     26 C16         2.1793   -1.1693   -3.1444 C.3       1 <0>        -0.1583
     27 H4         -1.8672   -2.7553   -2.7726 H         1 <0>         0.0775
     28 H5         -0.2522   -2.3073   -3.3721 H         1 <0>         0.0813
     29 H6         -0.5028   -3.8824   -2.5818 H         1 <0>         0.0774
     30 H7          0.5822    0.7122    0.0972 H         1 <0>         0.1376
     31 H8          0.3663   -0.6061    2.1582 H         1 <0>         0.1462
     32 H9          2.0618    3.3883   -4.2124 H         1 <0>         0.0809
     33 H10         0.9973    3.4202   -5.6506 H         1 <0>         0.0896
     34 H11         0.3603    2.6117   -2.8176 H         1 <0>         0.0541
     35 H12        -0.7058    3.3370   -4.0576 H         1 <0>         0.1025
     36 H13        -1.7632   -0.1595   -3.3701 H         1 <0>         0.1185
     37 H14        -0.9009    2.1177   -1.7165 H         1 <0>         0.3764
     38 H15         2.3728    1.9195   -7.0589 H         1 <0>         0.3837
     39 H16         1.6673   -1.9396   -3.7210 H         1 <0>         0.0677
     40 H17         3.1391   -0.9448   -3.6097 H         1 <0>         0.0704
     41 H18         2.3431   -1.5253   -2.1273 H         1 <0>         0.0631
@<TRIPOS>BOND
     1    1    2 1
     2    1   27 1
     3    1   28 1
     4    1   29 1
     5    2    7 ar
     6    2    3 ar
     7    3    4 ar
     8    3   11 1
     9    4    5 ar
    10    4   30 1
    11    5    6 ar
    12    5   31 1
    13    6    7 ar
    14    6    9 1
    15    7    8 1
    16    9   10 3
    17   11   21 1
    18   11   12 1
    19   12   13 1
    20   12   14 1
    21   12   26 1
    22   14   15 1
    23   14   20 1
    24   14   16 1
    25   16   17 1
    26   16   18 1
    27   16   25 1
    28   18   19 1
    29   18   32 1
    30   18   33 1
    31   19   20 1
    32   19   34 1
    33   19   35 1
    34   20   21 1
    35   21   22 1
    36   21   36 1
    37   22   23 1
    38   22   37 1
    39   23   24 3
    40   25   38 1
    41   26   39 1
    42   26   40 1
    43   26   41 1
@<TRIPOS>MOLECULE
CHEMBL482549__2
   42    44     0     0     0
SMALL
USER_CHARGES

@<TRIPOS>ATOM
      1 C1         -0.0184    1.5028    0.0103 C.3       1 <0>        -0.1161
      2 C2          0.0021   -0.0041    0.0020 C.ar      1 <0>        -0.0673
      3 C3          0.0057   -0.6925   -1.2071 C.ar      1 <0>         0.1889
      4 C4          0.0246   -2.0842   -1.2197 C.ar      1 <0>        -0.0957
      5 C5          0.0392   -2.7853   -0.0353 C.ar      1 <0>        -0.0573
      6 C6          0.0356   -2.0982    1.1822 C.ar      1 <0>         0.0185
      7 C7          0.0228   -0.6987    1.1918 C.ar      1 <0>         0.0017
      8 Cl1         0.0254    0.1605    2.7003 Cl        1 <0>        -0.0254
      9 C8          0.0504   -2.8244    2.4163 C.1       1 <0>         0.2288
     10 N1          0.0621   -3.4005    3.3954 N.1       1 <0>        -0.3641
     11 N2         -0.0100    0.0124   -2.4072 N.pl3     1 <0>        -0.6490
     12 C9          1.1687    0.4677   -3.1717 C.3       1 <0>         0.1448
     13 H1          1.5383    1.4142   -2.7773 H         1 <0>         0.1060
     14 C10         0.6301    0.6520   -4.6077 C.3       1 <0>         0.0359
     15 H2          0.6548   -0.2696   -5.1892 H         1 <0>         0.1738
     16 C11         1.3835    1.8054   -5.2913 C.3       1 <0>         0.0969
     17 H3          2.3985    1.8764   -4.9003 H         1 <0>         0.1131
     18 C12         0.5898    3.0805   -4.9473 C.3       1 <0>        -0.1770
     19 C13        -0.5666    2.6050   -4.0462 C.3       1 <0>         0.0032
     20 N3         -0.7582    1.1530   -4.3683 N.4       1 <0>        -0.4109
     21 C14        -1.2029    0.4373   -3.1539 C.3       1 <0>         0.4565
     22 N4         -1.9969   -0.7396   -3.5311 N.3       1 <0>        -0.5731
     23 C15        -2.7283   -1.2448   -2.4109 C.1       1 <0>         0.3392
     24 N5         -3.3094   -1.6461   -1.5211 N.1       1 <0>        -0.3389
     25 O1          1.4126    1.6063   -6.7061 O.3       1 <0>        -0.5546
     26 C16         2.2714   -0.5925   -3.1405 C.3       1 <0>        -0.1651
     27 H4          1.0042    1.8801    0.0026 H         1 <0>         0.0872
     28 H5         -0.5455    1.8639   -0.8728 H         1 <0>         0.0620
     29 H6         -0.5286    1.8543    0.9071 H         1 <0>         0.0841
     30 H7          0.0274   -2.6148   -2.1604 H         1 <0>         0.1484
     31 H8          0.0531   -3.8652   -0.0465 H         1 <0>         0.1533
     32 H9          1.2227    3.7864   -4.4095 H         1 <0>         0.1249
     33 H10         0.1979    3.5386   -5.8555 H         1 <0>         0.1150
     34 H11        -0.3006    2.7247   -2.9960 H         1 <0>         0.1402
     35 H12        -1.4753    3.1630   -4.2722 H         1 <0>         0.1452
     36 H13        -1.8050    1.1040   -2.5366 H         1 <0>         0.1330
     37 H14        -2.6144   -0.5278   -4.3004 H         1 <0>         0.3941
     38 H15         1.8752    2.3029   -7.1918 H         1 <0>         0.4074
     39 H16         1.8911   -1.5247   -3.5583 H         1 <0>         0.0781
     40 H17         3.1216   -0.2501   -3.7304 H         1 <0>         0.0850
     41 H18         2.5871   -0.7582   -2.1104 H         1 <0>         0.0841
     42 H19        -1.3678    1.0047   -5.1585 H         1 <0>         0.4450
@<TRIPOS>BOND
     1    1    2 1
     2    1   27 1
     3    1   28 1
     4    1   29 1
     5    2    7 ar
     6    2    3 ar
     7    3    4 ar
     8    3   11 1
     9    4    5 ar
    10    4   30 1
    11    5    6 ar
    12    5   31 1
    13    6    7 ar
    14    6    9 1
    15    7    8 1
    16    9   10 3
    17   11   21 1
    18   11   12 1
    19   12   13 1
    20   12   14 1
    21   12   26 1
    22   14   15 1
    23   14   20 1
    24   14   16 1
    25   16   17 1
    26   16   18 1
    27   16   25 1
    28   18   19 1
    29   18   32 1
    30   18   33 1
    31   19   20 1
    32   19   34 1
    33   19   35 1
    34   20   21 1
    35   20   42 1
    36   21   22 1
    37   21   36 1
    38   22   23 1
    39   22   37 1
    40   23   24 3
    41   25   38 1
    42   26   39 1
    43   26   40 1
    44   26   41 1
@<TRIPOS>MOLECULE
CHEMBL482549__3
   41    43     0     0     0
SMALL
USER_CHARGES

@<TRIPOS>ATOM
      1 C1         -0.0184    1.5028    0.0103 C.3       1 <0>        -0.1118
      2 C2          0.0021   -0.0041    0.0020 C.ar      1 <0>        -0.0805
      3 C3          0.0057   -0.6925   -1.2071 C.ar      1 <0>         0.2256
      4 C4          0.0246   -2.0842   -1.2197 C.ar      1 <0>        -0.1059
      5 C5          0.0392   -2.7853   -0.0353 C.ar      1 <0>        -0.0571
      6 C6          0.0356   -2.0982    1.1822 C.ar      1 <0>        -0.0109
      7 C7          0.0228   -0.6987    1.1918 C.ar      1 <0>         0.0064
      8 Cl1         0.0254    0.1605    2.7003 Cl        1 <0>        -0.0437
      9 C8          0.0504   -2.8244    2.4163 C.1       1 <0>         0.2464
     10 N1          0.0621   -3.4005    3.3954 N.1       1 <0>        -0.3919
     11 N2         -0.0100    0.0124   -2.4072 N.pl3     1 <0>        -0.6729
     12 C9          1.1689    0.4678   -3.1719 C.3       1 <0>         0.1354
     13 H1          1.5383    1.4145   -2.7778 H         1 <0>         0.0738
     14 C10         0.6292    0.6514   -4.6074 C.3       1 <0>         0.0600
     15 H2          0.6496   -0.2719   -5.1864 H         1 <0>         0.1280
     16 C11         1.3851    1.7992   -5.2965 C.3       1 <0>         0.1071
     17 H3          2.3997    1.8708   -4.9046 H         1 <0>         0.0718
     18 C12         0.5935    3.0779   -4.9615 C.3       1 <0>        -0.1596
     19 C13        -0.5633    2.6107   -4.0567 C.3       1 <0>         0.0248
     20 N3         -0.7574    1.1566   -4.3666 N.3       1 <0>        -0.4718
     21 C14        -1.2029    0.4374   -3.1540 C.3       1 <0>         0.4653
     22 N4         -1.9949   -0.7398   -3.5347 N.3       1 <0>        -0.5571
     23 C15        -2.7267   -1.2487   -2.4164 C.1       1 <0>         0.3482
     24 N5         -3.3079   -1.6529   -1.5281 N.1       1 <0>        -0.4069
     25 O1          1.4160    1.5916   -6.7100 O.3       1 <0>        -0.5550
     26 C16         2.2717   -0.5923   -3.1407 C.3       1 <0>        -0.1576
     27 H4          1.0042    1.8801    0.0026 H         1 <0>         0.0790
     28 H5         -0.5455    1.8639   -0.8728 H         1 <0>         0.0701
     29 H6         -0.5286    1.8543    0.9071 H         1 <0>         0.0752
     30 H7          0.0274   -2.6148   -2.1604 H         1 <0>         0.1448
     31 H8          0.0531   -3.8652   -0.0465 H         1 <0>         0.1452
     32 H9          1.2276    3.7867   -4.4290 H         1 <0>         0.0822
     33 H10         0.2020    3.5299   -5.8728 H         1 <0>         0.0891
     34 H11        -0.2969    2.7387   -3.0075 H         1 <0>         0.0626
     35 H12        -1.4712    3.1682   -4.2869 H         1 <0>         0.0947
     36 H13        -1.8065    1.1019   -2.5358 H         1 <0>         0.0706
     37 H14        -2.6121   -0.5269   -4.3041 H         1 <0>         0.3940
     38 H15         1.8803    2.2845   -7.1992 H         1 <0>         0.3829
     39 H16         1.8915   -1.5245   -3.5584 H         1 <0>         0.0682
     40 H17         3.1217   -0.2497   -3.7307 H         1 <0>         0.0695
     41 H18         2.5875   -0.7579   -2.1106 H         1 <0>         0.0619
@<TRIPOS>BOND
     1    1    2 1
     2    1   27 1
     3    1   28 1
     4    1   29 1
     5    2    7 ar
     6    2    3 ar
     7    3    4 ar
     8    3   11 1
     9    4    5 ar
    10    4   30 1
    11    5    6 ar
    12    5   31 1
    13    6    7 ar
    14    6    9 1
    15    7    8 1
    16    9   10 3
    17   11   21 1
    18   11   12 1
    19   12   13 1
    20   12   14 1
    21   12   26 1
    22   14   15 1
    23   14   20 1
    24   14   16 1
    25   16   17 1
    26   16   18 1
    27   16   25 1
    28   18   19 1
    29   18   32 1
    30   18   33 1
    31   19   20 1
    32   19   34 1
    33   19   35 1
    34   20   21 1
    35   21   22 1
    36   21   36 1
    37   22   23 1
    38   22   37 1
    39   23   24 3
    40   25   38 1
    41   26   39 1
    42   26   40 1
    43   26   41 1
@<TRIPOS>MOLECULE
CHEMBL187251
   41    42     0     0     0
SMALL
USER_CHARGES

@<TRIPOS>ATOM
      1 C1         -0.0263    1.5154   -0.0198 C.3       1 <0>        -0.1492
      2 C2          0.0054   -0.0142   -0.0043 C.3       1 <0>         0.1214
      3 C3         -1.3948   -0.5751    0.1455 C.2       1 <0>         0.5286
      4 O1         -2.3276   -0.4283   -0.6148 O.2       1 <0>        -0.4391
      5 N1         -1.3868   -1.2717    1.2992 N.am      1 <0>        -0.5221
      6 C4         -0.1886   -1.2292    1.8930 C.2       1 <0>         0.7026
      7 O2          0.0639   -1.7826    2.9451 O.2       1 <0>        -0.5214
      8 N2          0.7055   -0.5060    1.1950 N.am      1 <0>        -0.6087
      9 C5          2.1030   -0.2565    1.5567 C.3       1 <0>         0.1499
     10 C6          2.1918    1.0163    2.4011 C.3       1 <0>        -0.1410
     11 C7          3.6514    1.2769    2.7789 C.3       1 <0>        -0.1183
     12 C8          3.7402    2.5497    3.6233 C.3       1 <0>         0.0755
     13 O3          5.1034    2.7931    3.9761 O.3       1 <0>        -0.5757
     14 C9         -2.4946   -1.9541    1.8128 C.ar      1 <0>         0.1674
     15 C10        -2.3565   -2.7452    2.9482 C.ar      1 <0>        -0.1191
     16 C11        -3.4444   -3.4183    3.4574 C.ar      1 <0>        -0.0445
     17 C12        -4.6893   -3.3059    2.8318 C.ar      1 <0>        -0.0024
     18 C13        -4.8244   -2.5097    1.6906 C.ar      1 <0>        -0.0474
     19 C14        -3.7316   -1.8350    1.1903 C.ar      1 <0>        -0.1092
     20 I1         -6.6866   -2.3366    0.7466 I         1 <0>        -0.0051
     21 C15        -5.8230   -4.0047    3.3580 C.1       1 <0>         0.2376
     22 N3         -6.7224   -4.5590    3.7755 N.1       1 <0>        -0.3795
     23 C16         0.6706   -0.5501   -1.2736 C.3       1 <0>        -0.1483
     24 H1          0.9936    1.8999   -0.0237 H         1 <0>         0.0857
     25 H2         -0.5475    1.8590   -0.9133 H         1 <0>         0.0887
     26 H3         -0.5475    1.8770    0.8666 H         1 <0>         0.0688
     27 H4          2.4861   -1.1005    2.1303 H         1 <0>         0.0967
     28 H5          2.6964   -0.1336    0.6507 H         1 <0>         0.0937
     29 H6          1.8087    1.8603    1.8275 H         1 <0>         0.0728
     30 H7          1.5984    0.8934    3.3071 H         1 <0>         0.0732
     31 H8          4.0345    0.4329    3.3524 H         1 <0>         0.0751
     32 H9          4.2448    1.3998    1.8729 H         1 <0>         0.0739
     33 H10         3.3571    3.3937    3.0497 H         1 <0>         0.0455
     34 H11         3.1467    2.4268    4.5293 H         1 <0>         0.0462
     35 H12         5.2350    3.5864    4.5132 H         1 <0>         0.3827
     36 H13        -1.3943   -2.8321    3.4310 H         1 <0>         0.1796
     37 H14        -3.3359   -4.0327    4.3390 H         1 <0>         0.1528
     38 H15        -3.8357   -1.2164    0.3112 H         1 <0>         0.1692
     39 H16         1.6965   -0.1858   -1.3277 H         1 <0>         0.0848
     40 H17         0.6728   -1.6399   -1.2503 H         1 <0>         0.0698
     41 H18         0.1165   -0.2065   -2.1470 H         1 <0>         0.0891
@<TRIPOS>BOND
     1    1    2 1
     2    1   24 1
     3    1   25 1
     4    1   26 1
     5    2    8 1
     6    2    3 1
     7    2   23 1
     8    3    4 2
     9    3    5 am
    10    5    6 am
    11    5   14 1
    12    6    7 2
    13    6    8 am
    14    8    9 1
    15    9   10 1
    16    9   27 1
    17    9   28 1
    18   10   11 1
    19   10   29 1
    20   10   30 1
    21   11   12 1
    22   11   31 1
    23   11   32 1
    24   12   13 1
    25   12   33 1
    26   12   34 1
    27   13   35 1
    28   14   19 ar
    29   14   15 ar
    30   15   16 ar
    31   15   36 1
    32   16   17 ar
    33   16   37 1
    34   17   18 ar
    35   17   21 1
    36   18   19 ar
    37   18   20 1
    38   19   38 1
    39   21   22 3
    40   23   39 1
    41   23   40 1
    42   23   41 1
@<TRIPOS>MOLECULE
CHEMBL75663
   67    71     0     0     0
SMALL
USER_CHARGES

@<TRIPOS>ATOM
      1 C1          0.0421    1.3348    2.8379 C.3       1 <0>        -0.1665
      2 C2         -0.4258    1.2265    1.3852 C.3       1 <0>         0.1107
      3 N1         -1.7902    0.6942    1.3501 N.am      1 <0>        -0.6138
      4 C3         -2.9344    1.6080    1.3934 C.3       1 <0>         0.1002
      5 C4         -3.2473    2.1008   -0.0209 C.3       1 <0>        -0.1742
      6 C5         -1.9928   -0.6363    1.2779 C.2       1 <0>         0.5279
      7 O1         -1.0499   -1.3971    1.3329 O.2       1 <0>        -0.5341
      8 C6         -3.3839   -1.1760    1.1294 C.3       1 <0>        -0.1132
      9 C7         -3.3692   -2.4825    0.2906 C.3       1 <0>        -0.1099
     10 C8         -3.7563   -3.6332    1.2639 C.3       1 <0>        -0.1127
     11 C9         -3.4072   -3.0214    2.6288 C.3       1 <0>        -0.0777
     12 C10        -3.9908   -1.6004    2.4800 C.3       1 <0>        -0.0367
     13 C11        -3.6383   -0.7705    3.6827 C.3       1 <0>        -0.1026
     14 C12        -4.0273   -1.4740    4.9929 C.3       1 <0>        -0.1086
     15 C13        -4.6778   -2.8259    4.7896 C.3       1 <0>        -0.0623
     16 C14        -3.8901   -3.7323    3.8536 C.3       1 <0>        -0.0676
     17 C15        -4.7282   -4.9728    3.5420 C.3       1 <0>        -0.1095
     18 C16        -4.9907   -5.7247    4.8540 C.3       1 <0>        -0.1251
     19 C17        -5.7216   -4.8251    5.8434 C.3       1 <0>         0.1511
     20 H1         -6.6875   -4.5364    5.4031 H         1 <0>         0.0825
     21 C18        -4.9180   -3.5458    6.1250 C.3       1 <0>        -0.0559
     22 C19        -5.8001   -2.6323    7.0005 C.3       1 <0>         0.0136
     23 C20        -6.6161   -3.3481    8.0885 C.3       1 <0>        -0.0360
     24 H2         -6.7940   -2.8294    9.0310 H         1 <0>         0.1588
     25 O2         -7.2130   -2.8196    6.9034 O.3       1 <0>        -0.3176
     26 C21        -6.4360   -4.8433    8.1763 C.2       1 <0>         0.5331
     27 O3         -6.7003   -5.4335    9.2017 O.2       1 <0>        -0.5208
     28 N2         -5.9796   -5.5271    7.1019 N.am      1 <0>        -0.6037
     29 C22        -5.7613   -6.9700    7.2273 C.3       1 <0>         0.0792
     30 C23        -3.6112   -3.8555    6.8458 C.3       1 <0>        -0.1383
     31 C24        -5.5088   -1.6074    2.2536 C.3       1 <0>        -0.1520
     32 H3          1.0573    1.7309    2.8641 H         1 <0>         0.0651
     33 H4         -0.6229    2.0031    3.3850 H         1 <0>         0.0542
     34 H5          0.0253    0.3475    3.2996 H         1 <0>         0.0593
     35 H6         -0.4090    2.2138    0.9236 H         1 <0>         0.0747
     36 H7          0.2392    0.5583    0.8382 H         1 <0>         0.0814
     37 H8         -3.8019    1.0853    1.7962 H         1 <0>         0.0843
     38 H9         -2.6953    2.4597    2.0303 H         1 <0>         0.0781
     39 H10        -2.3529    2.5459   -0.4568 H         1 <0>         0.0598
     40 H11        -3.5714    1.2606   -0.6350 H         1 <0>         0.0580
     41 H12        -4.0407    2.8471    0.0216 H         1 <0>         0.0687
     42 H13        -4.0348   -0.4396    0.6577 H         1 <0>         0.0917
     43 H14        -4.0973   -2.4154   -0.5156 H         1 <0>         0.0678
     44 H15        -2.3721   -2.6544   -0.1109 H         1 <0>         0.0768
     45 H16        -4.8037   -3.8910    1.1826 H         1 <0>         0.0740
     46 H17        -3.1307   -4.5094    1.0737 H         1 <0>         0.0654
     47 H18        -2.3019   -2.9511    2.6890 H         1 <0>         0.0829
     48 H19        -2.5625   -0.5591    3.7207 H         1 <0>         0.0624
     49 H20        -4.1604    0.1966    3.6278 H         1 <0>         0.0613
     50 H21        -3.1219   -1.5792    5.6049 H         1 <0>         0.0649
     51 H22        -4.7150   -0.8199    5.5482 H         1 <0>         0.0622
     52 H23        -5.6917   -2.6835    4.3877 H         1 <0>         0.0818
     53 H24        -2.9860   -4.0906    4.3864 H         1 <0>         0.0694
     54 H25        -5.6761   -4.6761    3.0980 H         1 <0>         0.0680
     55 H26        -4.1827   -5.6210    2.8578 H         1 <0>         0.0761
     56 H27        -5.6121   -6.5943    4.6191 H         1 <0>         0.0734
     57 H28        -4.0424   -6.0619    5.2646 H         1 <0>         0.0759
     58 H29        -5.4108   -1.6361    7.2060 H         1 <0>         0.1466
     59 H30        -4.7379   -7.1557    7.5532 H         1 <0>         0.0581
     60 H31        -6.4560   -7.3802    7.9603 H         1 <0>         0.0797
     61 H32        -5.9276   -7.4479    6.2619 H         1 <0>         0.0749
     62 H33        -3.0795   -2.9260    7.0496 H         1 <0>         0.0673
     63 H34        -3.8262   -4.3645    7.7854 H         1 <0>         0.0586
     64 H35        -2.9932   -4.4974    6.2180 H         1 <0>         0.0720
     65 H36        -5.7738   -2.4327    1.5926 H         1 <0>         0.0650
     66 H37        -6.0182   -1.7297    3.2095 H         1 <0>         0.0668
     67 H38        -5.8126   -0.6650    1.7979 H         1 <0>         0.0550
@<TRIPOS>BOND
     1    1    2 1
     2    1   32 1
     3    1   33 1
     4    1   34 1
     5    2    3 1
     6    2   35 1
     7    2   36 1
     8    3    4 1
     9    3    6 am
    10    4    5 1
    11    4   37 1
    12    4   38 1
    13    5   39 1
    14    5   40 1
    15    5   41 1
    16    6    7 2
    17    6    8 1
    18    8   12 1
    19    8    9 1
    20    8   42 1
    21    9   10 1
    22    9   43 1
    23    9   44 1
    24   10   11 1
    25   10   45 1
    26   10   46 1
    27   11   16 1
    28   11   12 1
    29   11   47 1
    30   12   13 1
    31   12   31 1
    32   13   14 1
    33   13   48 1
    34   13   49 1
    35   14   15 1
    36   14   50 1
    37   14   51 1
    38   15   21 1
    39   15   16 1
    40   15   52 1
    41   16   17 1
    42   16   53 1
    43   17   18 1
    44   17   54 1
    45   17   55 1
    46   18   19 1
    47   18   56 1
    48   18   57 1
    49   19   20 1
    50   19   28 1
    51   19   21 1
    52   21   22 1
    53   21   30 1
    54   22   25 1
    55   22   23 1
    56   22   58 1
    57   23   24 1
    58   23   25 1
    59   23   26 1
    60   26   27 2
    61   26   28 am
    62   28   29 1
    63   29   59 1
    64   29   60 1
    65   29   61 1
    66   30   62 1
    67   30   63 1
    68   30   64 1
    69   31   65 1
    70   31   66 1
    71   31   67 1
@<TRIPOS>MOLECULE
CHEMBL510145
   32    33     0     0     0
SMALL
USER_CHARGES

@<TRIPOS>ATOM
      1 C1         -2.1969    0.8450    0.5760 C.3       1 <0>         0.0262
      2 O1         -1.5465   -0.4156    0.4029 O.3       1 <0>        -0.3091
      3 C2         -2.1874   -1.3415   -0.3595 C.ar      1 <0>         0.1487
      4 C3         -3.4120   -1.0415   -0.9328 C.ar      1 <0>        -0.1922
      5 C4         -4.0627   -1.9840   -1.7078 C.ar      1 <0>        -0.0798
      6 C5         -3.4943   -3.2278   -1.9131 C.ar      1 <0>        -0.1386
      7 C6         -2.2729   -3.5355   -1.3449 C.ar      1 <0>        -0.0865
      8 C7         -1.6110   -2.5927   -0.5705 C.ar      1 <0>        -0.1358
      9 S1         -0.0500   -2.9792    0.1495 S.3       1 <0>         0.0254
     10 C8          0.1889   -4.6812   -0.2388 C.ar      1 <0>        -0.0819
     11 C9          0.9278   -5.0396   -1.3651 C.ar      1 <0>        -0.1041
     12 C10         1.1190   -6.3553   -1.6743 C.ar      1 <0>        -0.0396
     13 C11         0.5731   -7.3540   -0.8607 C.ar      1 <0>        -0.0334
     14 C12        -0.1720   -6.9983    0.2749 C.ar      1 <0>         0.1688
     15 C13        -0.3554   -5.6621    0.5824 C.ar      1 <0>        -0.1565
     16 O2         -0.7051   -7.9605    1.0697 O.3       1 <0>        -0.3065
     17 C14        -1.4508   -7.5225    2.2074 C.3       1 <0>         0.0212
     18 C15         0.7732   -8.7343   -1.1853 C.1       1 <0>         0.2556
     19 N1          0.9320   -9.8293   -1.4427 N.1       1 <0>        -0.4026
     20 H1         -2.3417    1.3157   -0.3965 H         1 <0>         0.0576
     21 H2         -3.1649    0.6919    1.0532 H         1 <0>         0.0573
     22 H3         -1.5804    1.4889    1.2031 H         1 <0>         0.1038
     23 H4         -3.8590   -0.0712   -0.7742 H         1 <0>         0.1345
     24 H5         -5.0177   -1.7482   -2.1536 H         1 <0>         0.1291
     25 H6         -4.0065   -3.9607   -2.5189 H         1 <0>         0.1283
     26 H7         -1.8313   -4.5077   -1.5069 H         1 <0>         0.1288
     27 H8          1.3510   -4.2724   -1.9965 H         1 <0>         0.1479
     28 H9          1.6924   -6.6258   -2.5487 H         1 <0>         0.1489
     29 H10        -0.9237   -5.3813    1.4568 H         1 <0>         0.1495
     30 H11        -0.8074   -6.9293    2.8571 H         1 <0>         0.0642
     31 H12        -2.2935   -6.9150    1.8775 H         1 <0>         0.0626
     32 H13        -1.8203   -8.3894    2.7552 H         1 <0>         0.1081
@<TRIPOS>BOND
     1    1    2 1
     2    1   20 1
     3    1   21 1
     4    1   22 1
     5    2    3 1
     6    3    8 ar
     7    3    4 ar
     8    4    5 ar
     9    4   23 1
    10    5    6 ar
    11    5   24 1
    12    6    7 ar
    13    6   25 1
    14    7    8 ar
    15    7   26 1
    16    8    9 1
    17    9   10 1
    18   10   15 ar
    19   10   11 ar
    20   11   12 ar
    21   11   27 1
    22   12   13 ar
    23   12   28 1
    24   13   14 ar
    25   13   18 1
    26   14   15 ar
    27   14   16 1
    28   15   29 1
    29   16   17 1
    30   17   30 1
    31   17   31 1
    32   17   32 1
    33   18   19 3
@<TRIPOS>MOLECULE
CHEMBL188129
   54    58     0     0     0
SMALL
USER_CHARGES

@<TRIPOS>ATOM
      1 C1         -0.7442    0.7278   -0.6393 C.3       1 <0>        -0.1858
      2 C2         -0.6266   -0.7834   -0.8472 C.3       1 <0>         0.1343
      3 C3         -0.0679   -1.4308    0.4215 C.3       1 <0>        -0.1853
      4 C4         -2.0087   -1.3655   -1.1506 C.3       1 <0>        -0.1399
      5 O1          0.2521   -1.0466   -1.9429 O.3       1 <0>        -0.3543
      6 C5          1.5165   -0.5970   -1.8341 C.2       1 <0>         0.6683
      7 O2          1.8643    0.0025   -0.8360 O.2       1 <0>        -0.5450
      8 N1          2.3964   -0.8118   -2.8321 N.am      1 <0>        -0.6095
      9 C6          2.1172   -1.5165   -4.1035 C.3       1 <0>         0.0852
     10 C7          3.4334   -1.2979   -4.9384 C.3       1 <0>         0.1839
     11 H1          3.5710   -1.9116   -5.8287 H         1 <0>         0.1533
     12 C8          4.4555   -1.5065   -3.7627 C.3       1 <0>        -0.1410
     13 C9          3.8175   -0.3776   -2.8545 C.3       1 <0>         0.1670
     14 H2          4.2779   -0.2136   -1.8802 H         1 <0>         0.1554
     15 C10         3.9575    0.7609   -3.8863 C.3       1 <0>         0.0334
     16 H3          4.9972    1.0581   -4.0235 H         1 <0>         0.1507
     17 N2          3.3651    0.1678   -5.1410 N.am      1 <0>        -0.6559
     18 C11         2.9390    1.2350   -5.8197 C.2       1 <0>         0.7585
     19 O3          2.9284    1.3406   -7.0304 O.2       1 <0>        -0.4970
     20 N3          2.5203    2.1807   -4.9475 N.am      1 <0>        -0.5782
     21 C12         3.0628    1.9452   -3.6565 C.2       1 <0>         0.5386
     22 O4          2.8539    2.5345   -2.6178 O.2       1 <0>        -0.4109
     23 C13         1.6833    3.2523   -5.2776 C.ar      1 <0>         0.2028
     24 C14         0.3156    3.1233   -5.1737 C.ar      1 <0>        -0.1049
     25 C15        -0.5261    4.1828   -5.4994 C.ar      1 <0>        -0.0277
     26 C16        -0.0236    5.3732   -5.9287 C.ar      1 <0>        -0.0222
     27 C17         1.3657    5.5458   -6.0480 C.ar      1 <0>        -0.0077
     28 C18         2.2325    4.4759   -5.7141 C.ar      1 <0>        -0.0400
     29 C19         3.6206    4.6516   -5.8292 C.ar      1 <0>        -0.0930
     30 C20         4.1158    5.8467   -6.2538 C.ar      1 <0>        -0.0965
     31 C21         3.2643    6.9015   -6.5767 C.ar      1 <0>        -0.0843
     32 C22         1.9131    6.7632   -6.4891 C.ar      1 <0>        -0.1155
     33 N4         -0.9402    6.4845   -6.2699 N.pl3     1 <0>         0.0304
     34 O5         -1.9373    6.6695   -5.6117 O.2       1 <0>        -0.1428
     35 O6         -0.6918    7.2070   -7.2069 O.3       1 <0>        -0.1446
     36 H4          0.2404    1.1425   -0.4232 H         1 <0>         0.0880
     37 H5         -1.1422    1.1890   -1.5432 H         1 <0>         0.0565
     38 H6         -1.4144    0.9286    0.1964 H         1 <0>         0.0726
     39 H7         -0.7382   -1.2301    1.2573 H         1 <0>         0.0721
     40 H8          0.0158   -2.5075    0.2734 H         1 <0>         0.0599
     41 H9          0.9167   -1.0161    0.6376 H         1 <0>         0.0872
     42 H10        -2.4067   -0.9043   -2.0545 H         1 <0>         0.0657
     43 H11        -1.9249   -2.4421   -1.2987 H         1 <0>         0.0672
     44 H12        -2.6789   -1.1648   -0.3148 H         1 <0>         0.0828
     45 H13         1.9475   -2.5783   -3.9248 H         1 <0>         0.0923
     46 H14         1.2620   -1.0698   -4.6105 H         1 <0>         0.0806
     47 H15         4.3758   -2.4971   -3.3150 H         1 <0>         0.1185
     48 H16         5.4787   -1.2720   -4.0564 H         1 <0>         0.1105
     49 H17        -0.1083    2.1892   -4.8359 H         1 <0>         0.1498
     50 H18        -1.5952    4.0586   -5.4105 H         1 <0>         0.1595
     51 H19         4.2924    3.8430   -5.5817 H         1 <0>         0.1271
     52 H20         5.1840    5.9791   -6.3414 H         1 <0>         0.1377
     53 H21         3.6825    7.8397   -6.9105 H         1 <0>         0.1403
     54 H22         1.2653    7.5889   -6.7440 H         1 <0>         0.1519
@<TRIPOS>BOND
     1    1    2 1
     2    1   36 1
     3    1   37 1
     4    1   38 1
     5    2    3 1
     6    2    4 1
     7    2    5 1
     8    3   39 1
     9    3   40 1
    10    3   41 1
    11    4   42 1
    12    4   43 1
    13    4   44 1
    14    5    6 1
    15    6    7 2
    16    6    8 am
    17    8   13 1
    18    8    9 1
    19    9   10 1
    20    9   45 1
    21    9   46 1
    22   10   11 1
    23   10   17 1
    24   10   12 1
    25   12   13 1
    26   12   47 1
    27   12   48 1
    28   13   14 1
    29   13   15 1
    30   15   16 1
    31   15   21 1
    32   15   17 1
    33   17   18 am
    34   18   19 2
    35   18   20 am
    36   20   21 am
    37   20   23 1
    38   21   22 2
    39   23   28 ar
    40   23   24 ar
    41   24   25 ar
    42   24   49 1
    43   25   26 ar
    44   25   50 1
    45   26   27 ar
    46   26   33 1
    47   27   32 ar
    48   27   28 ar
    49   28   29 ar
    50   29   30 ar
    51   29   51 1
    52   30   31 ar
    53   30   52 1
    54   31   32 ar
    55   31   53 1
    56   32   54 1
    57   33   34 2
    58   33   35 1
@<TRIPOS>MOLECULE
CHEMBL390577
   41    44     0     0     0
SMALL
USER_CHARGES

@<TRIPOS>ATOM
      1 C1          6.6552   -2.1939   -2.7523 C.ar      1 <0>        -0.1146
      2 C2          5.5178   -2.9352   -2.4922 C.ar      1 <0>        -0.1179
      3 C3          4.5652   -2.4542   -1.6136 C.ar      1 <0>        -0.1023
      4 C4          4.7502   -1.2320   -0.9947 C.ar      1 <0>        -0.1135
      5 C5          5.8880   -0.4911   -1.2541 C.ar      1 <0>        -0.1057
      6 C6          6.8400   -0.9715   -2.1338 C.ar      1 <0>        -0.1213
      7 C7          3.7112   -0.7071   -0.0376 C.3       1 <0>         0.1699
      8 N1          4.0901   -1.0558    1.3339 N.pl3     1 <0>        -0.6287
      9 C8          4.8652   -0.1240    2.1707 C.3       1 <0>         0.0885
     10 C9          5.9254   -0.9449    2.9186 C.3       1 <0>         0.0444
     11 O1          5.2680   -1.9450    3.6998 O.3       1 <0>        -0.3038
     12 C10         4.3343   -2.7173    3.0849 C.ar      1 <0>         0.1350
     13 C11         3.7217   -2.2890    1.8991 C.ar      1 <0>         0.1352
     14 C12         2.7680   -3.0674    1.2804 C.ar      1 <0>        -0.1091
     15 C13         2.4052   -4.2967    1.8460 C.ar      1 <0>        -0.0974
     16 C14         1.3954   -5.1471    1.2177 C.2       1 <0>        -0.0812
     17 C15         1.0819   -6.3280    1.8094 C.2       1 <0>        -0.1395
     18 C16         1.7223   -6.7156    3.0036 C.2       1 <0>         0.5373
     19 O2          1.4255   -7.7801    3.5184 O.2       1 <0>        -0.5235
     20 N2          2.6525   -5.9416    3.5891 N.am      1 <0>        -0.6181
     21 H1          3.0741   -6.2396    4.4103 H         1 <0>         0.4213
     22 C17         3.0164   -4.7286    3.0391 C.ar      1 <0>         0.1829
     23 C18         3.9863   -3.9339    3.6454 C.ar      1 <0>        -0.1555
     24 C19         0.7168   -4.7218   -0.0589 C.3       1 <0>         0.5089
     25 F1         -0.2000   -5.7037   -0.4493 F         1 <0>        -0.1673
     26 F2          0.0444   -3.5130    0.1508 F         1 <0>        -0.1669
     27 F3          1.6761   -4.5536   -1.0632 F         1 <0>        -0.1683
     28 H2          7.4016   -2.5718   -3.4353 H         1 <0>         0.1223
     29 H3          5.3732   -3.8900   -2.9757 H         1 <0>         0.1232
     30 H4          3.6762   -3.0330   -1.4109 H         1 <0>         0.1210
     31 H5          6.0324    0.4639   -0.7708 H         1 <0>         0.1185
     32 H6          7.7288   -0.3925   -2.3367 H         1 <0>         0.1223
     33 H7          3.6450    0.3768   -0.1318 H         1 <0>         0.0906
     34 H8          2.7440   -1.1519   -0.2715 H         1 <0>         0.0838
     35 H9          5.3509    0.6218    1.5415 H         1 <0>         0.0976
     36 H10         4.2054    0.3673    2.8859 H         1 <0>         0.0777
     37 H11         6.5916   -1.4221    2.2000 H         1 <0>         0.0728
     38 H12         6.5001   -0.2895    3.5730 H         1 <0>         0.1218
     39 H13         2.3028   -2.7319    0.3654 H         1 <0>         0.1384
     40 H14         0.3387   -6.9726    1.3638 H         1 <0>         0.1714
     41 H15         4.4583   -4.2606    4.5603 H         1 <0>         0.1495
@<TRIPOS>BOND
     1    1    6 ar
     2    1    2 ar
     3    1   28 1
     4    2    3 ar
     5    2   29 1
     6    3    4 ar
     7    3   30 1
     8    4    5 ar
     9    4    7 1
    10    5    6 ar
    11    5   31 1
    12    6   32 1
    13    7    8 1
    14    7   33 1
    15    7   34 1
    16    8   13 1
    17    8    9 1
    18    9   10 1
    19    9   35 1
    20    9   36 1
    21   10   11 1
    22   10   37 1
    23   10   38 1
    24   11   12 1
    25   12   23 ar
    26   12   13 ar
    27   13   14 ar
    28   14   15 ar
    29   14   39 1
    30   15   22 ar
    31   15   16 1
    32   16   17 2
    33   16   24 1
    34   17   18 1
    35   17   40 1
    36   18   19 2
    37   18   20 am
    38   20   21 1
    39   20   22 1
    40   22   23 ar
    41   23   41 1
    42   24   25 1
    43   24   26 1
    44   24   27 1
@<TRIPOS>MOLECULE
CHEMBL238001
   89    93     0     0     0
SMALL
USER_CHARGES

@<TRIPOS>ATOM
      1 C1         -0.0981    1.5258   -0.0410 C.3       1 <0>        -0.1551
      2 C2         -0.0847   -0.0041   -0.0540 C.3       1 <0>        -0.0286
      3 C3         -1.5210   -0.4507   -0.1782 C.3       1 <0>        -0.1101
      4 C4         -1.7694   -1.8013    0.4927 C.3       1 <0>        -0.1669
      5 C5         -1.3101   -1.6880    1.9341 C.2       1 <0>         0.3889
      6 O1         -2.0283   -1.9939    2.8629 O.2       1 <0>        -0.4590
      7 C6          0.0560   -1.1865    2.1395 C.2       1 <0>        -0.2417
      8 C7          0.6181   -0.4383    1.1942 C.2       1 <0>        -0.0146
      9 C8          2.0653   -0.0091    1.3683 C.3       1 <0>        -0.0948
     10 C9          2.8314   -0.4328    0.1099 C.3       1 <0>        -0.0770
     11 H1          3.8568   -0.0680    0.1703 H         1 <0>         0.0783
     12 C10         2.1571    0.1510   -1.1318 C.3       1 <0>        -0.0733
     13 H2          2.1076    1.2365   -1.0459 H         1 <0>         0.0876
     14 C11         0.7368   -0.4221   -1.2742 C.3       1 <0>        -0.0656
     15 H3          0.7907   -1.5100   -1.3153 H         1 <0>         0.0764
     16 C12         0.0554    0.0794   -2.5438 C.3       1 <0>        -0.1241
     17 C13         0.9063   -0.2012   -3.7927 C.3       1 <0>        -0.1021
     18 C14         2.2511    0.4667   -3.5797 C.3       1 <0>        -0.0487
     19 C15         2.9399   -0.2276   -2.3753 C.3       1 <0>        -0.0816
     20 H4          2.9293   -1.3085   -2.5148 H         1 <0>         0.0793
     21 C16         4.3682    0.3218   -2.4586 C.3       1 <0>        -0.1122
     22 C17         4.6631    0.2935   -3.9833 C.3       1 <0>        -0.1499
     23 C18         3.2730    0.3097   -4.7012 C.3       1 <0>         0.1362
     24 C19         3.0187   -0.9871   -5.4723 C.3       1 <0>        -0.1740
     25 O2          3.2149    1.4315   -5.5845 O.3       1 <0>        -0.5563
     26 C20         2.0490    1.9506   -3.2662 C.3       1 <0>        -0.1351
     27 C21         2.8404   -1.9596    0.0104 C.3       1 <0>        -0.1185
     28 C22         3.6321   -2.5424    1.1828 C.3       1 <0>        -0.1204
     29 C23         3.6410   -4.0691    1.0834 C.3       1 <0>        -0.1129
     30 C24         4.4327   -4.6519    2.2558 C.3       1 <0>        -0.0727
     31 C25         4.4415   -6.1557    2.1578 C.ar      1 <0>        -0.1277
     32 C26         3.4393   -6.8925    2.7615 C.ar      1 <0>        -0.0788
     33 C27         3.4454   -8.2712    2.6735 C.ar      1 <0>        -0.1543
     34 C28         4.4580   -8.9162    1.9784 C.ar      1 <0>         0.1331
     35 C29         5.4622   -8.1746    1.3732 C.ar      1 <0>        -0.2071
     36 C30         5.4487   -6.7959    1.4597 C.ar      1 <0>        -0.0761
     37 O3          4.4664  -10.2724    1.8908 O.3       1 <0>        -0.3168
     38 C31         5.5395  -10.8686    1.1594 C.3       1 <0>         0.0602
     39 C32         5.3807  -12.3903    1.1703 C.3       1 <0>        -0.1188
     40 C33         6.5296  -13.0286    0.3871 C.3       1 <0>        -0.0898
     41 C34         6.3707  -14.5503    0.3980 C.3       1 <0>        -0.1826
     42 C35         7.5024  -15.1791   -0.3734 C.2       1 <0>         0.4885
     43 O4          8.3569  -14.4753   -0.8844 O.co2     1 <0>        -0.7000
     44 O5          7.5636  -16.3915   -0.4864 O.co2     1 <0>        -0.7069
     45 H5          0.9263    1.8980   -0.0232 H         1 <0>         0.0671
     46 H6         -0.6023    1.8924   -0.9352 H         1 <0>         0.0668
     47 H7         -0.6277    1.8771    0.8446 H         1 <0>         0.0549
     48 H8         -2.1648    0.2973    0.2845 H         1 <0>         0.0696
     49 H9         -1.7764   -0.5289   -1.2350 H         1 <0>         0.0882
     50 H10        -2.8324   -2.0402    0.4608 H         1 <0>         0.0904
     51 H11        -1.1994   -2.5780   -0.0172 H         1 <0>         0.0985
     52 H12         0.6000   -1.4326    3.0394 H         1 <0>         0.1345
     53 H13         2.1181    1.0732    1.4861 H         1 <0>         0.0802
     54 H14         2.4930   -0.4982    2.2435 H         1 <0>         0.0814
     55 H15        -0.9083   -0.4185   -2.6508 H         1 <0>         0.0663
     56 H16        -0.1083    1.1537   -2.4590 H         1 <0>         0.0732
     57 H17         1.0411   -1.2758   -3.9161 H         1 <0>         0.0653
     58 H18         0.4201    0.2163   -4.6745 H         1 <0>         0.0658
     59 H19         4.4122    1.3416   -2.0761 H         1 <0>         0.0692
     60 H20         5.0618   -0.3236   -1.9196 H         1 <0>         0.0673
     61 H21         5.2599    1.1610   -4.2651 H         1 <0>         0.0720
     62 H22         5.1891   -0.6244   -4.2456 H         1 <0>         0.0660
     63 H23         2.0177   -0.9632   -5.9032 H         1 <0>         0.0663
     64 H24         3.7553   -1.0862   -6.2696 H         1 <0>         0.0560
     65 H25         3.1018   -1.8358   -4.7933 H         1 <0>         0.0671
     66 H26         3.8431    1.3872   -6.3184 H         1 <0>         0.3723
     67 H27         1.3962    2.0532   -2.3994 H         1 <0>         0.0602
     68 H28         3.0133    2.4112   -3.0514 H         1 <0>         0.0534
     69 H29         1.5936    2.4445   -4.1246 H         1 <0>         0.0583
     70 H30         1.8164   -2.3318    0.0427 H         1 <0>         0.0660
     71 H31         3.3067   -2.2598   -0.9279 H         1 <0>         0.0661
     72 H32         4.6560   -2.1701    1.1506 H         1 <0>         0.0604
     73 H33         3.1657   -2.2421    2.1212 H         1 <0>         0.0623
     74 H34         2.6171   -4.4413    1.1156 H         1 <0>         0.0615
     75 H35         4.1074   -4.3694    0.1450 H         1 <0>         0.0614
     76 H36         5.4567   -4.2797    2.2235 H         1 <0>         0.0678
     77 H37         3.9663   -4.3517    3.1941 H         1 <0>         0.0678
     78 H38         2.6513   -6.3899    3.3025 H         1 <0>         0.1244
     79 H39         2.6628   -8.8463    3.1459 H         1 <0>         0.1282
     80 H40         6.2515   -8.6745    0.8315 H         1 <0>         0.1294
     81 H41         6.2278   -6.2179    0.9850 H         1 <0>         0.1211
     82 H42         5.5221  -10.5088    0.1307 H         1 <0>         0.0622
     83 H43         6.4888  -10.5991    1.6225 H         1 <0>         0.0624
     84 H44         5.3981  -12.7501    2.1990 H         1 <0>         0.0680
     85 H45         4.4314  -12.6598    0.7071 H         1 <0>         0.0678
     86 H46         6.5122  -12.6688   -0.6416 H         1 <0>         0.0619
     87 H47         7.4788  -12.7591    0.8503 H         1 <0>         0.0620
     88 H48         6.3882  -14.9101    1.4267 H         1 <0>         0.0574
     89 H49         5.4215  -14.8198   -0.0651 H         1 <0>         0.0573
@<TRIPOS>BOND
     1    1    2 1
     2    1   45 1
     3    1   46 1
     4    1   47 1
     5    2    8 1
     6    2   14 1
     7    2    3 1
     8    3    4 1
     9    3   48 1
    10    3   49 1
    11    4    5 1
    12    4   50 1
    13    4   51 1
    14    5    6 2
    15    5    7 1
    16    7    8 2
    17    7   52 1
    18    8    9 1
    19    9   10 1
    20    9   53 1
    21    9   54 1
    22   10   11 1
    23   10   12 1
    24   10   27 1
    25   12   13 1
    26   12   19 1
    27   12   14 1
    28   14   15 1
    29   14   16 1
    30   16   17 1
    31   16   55 1
    32   16   56 1
    33   17   18 1
    34   17   57 1
    35   17   58 1
    36   18   23 1
    37   18   19 1
    38   18   26 1
    39   19   20 1
    40   19   21 1
    41   21   22 1
    42   21   59 1
    43   21   60 1
    44   22   23 1
    45   22   61 1
    46   22   62 1
    47   23   24 1
    48   23   25 1
    49   24   63 1
    50   24   64 1
    51   24   65 1
    52   25   66 1
    53   26   67 1
    54   26   68 1
    55   26   69 1
    56   27   28 1
    57   27   70 1
    58   27   71 1
    59   28   29 1
    60   28   72 1
    61   28   73 1
    62   29   30 1
    63   29   74 1
    64   29   75 1
    65   30   31 1
    66   30   76 1
    67   30   77 1
    68   31   36 ar
    69   31   32 ar
    70   32   33 ar
    71   32   78 1
    72   33   34 ar
    73   33   79 1
    74   34   35 ar
    75   34   37 1
    76   35   36 ar
    77   35   80 1
    78   36   81 1
    79   37   38 1
    80   38   39 1
    81   38   82 1
    82   38   83 1
    83   39   40 1
    84   39   84 1
    85   39   85 1
    86   40   41 1
    87   40   86 1
    88   40   87 1
    89   41   42 1
    90   41   88 1
    91   41   89 1
    92   42   43 2
    93   42   44 1
@<TRIPOS>MOLECULE
CHEMBL16927
   72    76     0     0     0
SMALL
USER_CHARGES

@<TRIPOS>ATOM
      1 C1         -0.6788    1.8953   -0.6713 C.3       1 <0>        -0.1518
      2 C2         -0.5465    0.3854   -0.4622 C.3       1 <0>        -0.0636
      3 C3         -1.9351   -0.2546   -0.4830 C.3       1 <0>        -0.1154
      4 C4         -2.8245    0.4980    0.5116 C.3       1 <0>        -0.1346
      5 C5         -2.1080    0.6889    1.8164 C.2       1 <0>         0.5169
      6 O1         -2.7661    0.9885    2.7900 O.2       1 <0>        -0.5557
      7 N1         -0.7880    0.5480    1.9693 N.am      1 <0>        -0.6000
      8 C6          0.0954    0.1148    0.8992 C.3       1 <0>         0.1530
      9 H1          0.2668   -0.9571    0.9987 H         1 <0>         0.0685
     10 C7          1.4491    0.8186    0.9647 C.3       1 <0>        -0.1308
     11 C8          2.3540    0.2560   -0.1358 C.3       1 <0>        -0.1105
     12 C9          1.7111    0.4786   -1.5053 C.3       1 <0>        -0.0742
     13 C10         0.3395   -0.2037   -1.5584 C.3       1 <0>        -0.0623
     14 C11        -0.2858    0.0793   -2.9283 C.3       1 <0>        -0.1154
     15 C12         0.5854   -0.5652   -4.0032 C.3       1 <0>        -0.1047
     16 C13         1.9875    0.0483   -4.0067 C.3       1 <0>        -0.0655
     17 C14         2.6198   -0.0158   -2.6041 C.3       1 <0>        -0.0772
     18 C15         2.9802   -1.5050   -2.4495 C.3       1 <0>        -0.1209
     19 C16         3.4989   -1.8971   -3.8522 C.3       1 <0>        -0.1403
     20 C17         2.8868   -0.8999   -4.8439 C.3       1 <0>         0.1422
     21 H2          2.2880   -1.4213   -5.5906 H         1 <0>         0.0939
     22 N2          3.9528   -0.1359   -5.4969 N.am      1 <0>        -0.6074
     23 C18         4.9004    0.4693   -4.7538 C.2       1 <0>         0.4928
     24 O2          5.7265    1.1799   -5.2862 O.2       1 <0>        -0.5435
     25 C19         3.9887   -0.0298   -6.9576 C.3       1 <0>         0.1524
     26 C20         5.3004   -0.6195   -7.4797 C.3       1 <0>        -0.1337
     27 C21         5.3379   -0.5087   -9.0052 C.3       1 <0>        -0.1142
     28 C22         5.2427    0.9631   -9.4121 C.3       1 <0>        -0.1214
     29 C23         3.9310    1.5528   -8.8901 C.3       1 <0>        -0.1152
     30 C24         3.8935    1.4420   -7.3645 C.3       1 <0>        -0.1386
     31 C25         1.9792    1.4700   -4.5721 C.3       1 <0>        -0.1313
     32 C26        -0.2025    0.8451    3.2789 C.3       1 <0>         0.0689
     33 H3          0.3090    2.3548   -0.6371 H         1 <0>         0.0656
     34 H4         -1.1363    2.0890   -1.6415 H         1 <0>         0.0639
     35 H5         -1.3034    2.3177    0.1158 H         1 <0>         0.0542
     36 H6         -2.3591   -0.1806   -1.4844 H         1 <0>         0.0832
     37 H7         -1.8616   -1.3021   -0.1908 H         1 <0>         0.0708
     38 H8         -3.0841    1.4722    0.0972 H         1 <0>         0.1015
     39 H9         -3.7375   -0.0726    0.6820 H         1 <0>         0.0994
     40 H10         1.3118    1.8891    0.8127 H         1 <0>         0.0736
     41 H11         1.9056    0.6419    1.9386 H         1 <0>         0.0714
     42 H12         3.3198    0.7603   -0.1032 H         1 <0>         0.0685
     43 H13         2.4996   -0.8121    0.0262 H         1 <0>         0.0673
     44 H14         1.5588    1.5492   -1.6421 H         1 <0>         0.0745
     45 H15         0.4519   -1.2768   -1.4038 H         1 <0>         0.0782
     46 H16        -1.2890   -0.3450   -2.9673 H         1 <0>         0.0682
     47 H17        -0.3341    1.1557   -3.0933 H         1 <0>         0.0698
     48 H18         0.6625   -1.6350   -3.8085 H         1 <0>         0.0663
     49 H19         0.1241   -0.4113   -4.9787 H         1 <0>         0.0631
     50 H20         3.5416    0.5657   -2.5954 H         1 <0>         0.0696
     51 H21         3.7618   -1.6351   -1.7009 H         1 <0>         0.0702
     52 H22         2.0972   -2.0888   -2.1896 H         1 <0>         0.0743
     53 H23         4.5870   -1.8378   -3.8780 H         1 <0>         0.0722
     54 H24         3.1735   -2.9070   -4.1019 H         1 <0>         0.0743
     55 H25         4.9241    0.3214   -3.6842 H         1 <0>         0.1199
     56 H26         3.1487   -0.5794   -7.3826 H         1 <0>         0.0795
     57 H27         6.1404   -0.0700   -7.0547 H         1 <0>         0.0816
     58 H28         5.3682   -1.6681   -7.1898 H         1 <0>         0.0583
     59 H29         6.2724   -0.9288   -9.3771 H         1 <0>         0.0633
     60 H30         4.4980   -1.0582   -9.4302 H         1 <0>         0.0596
     61 H31         6.0827    1.5126   -8.9872 H         1 <0>         0.0640
     62 H32         5.2694    1.0421  -10.4989 H         1 <0>         0.0607
     63 H33         3.8632    2.6013   -9.1800 H         1 <0>         0.0628
     64 H34         3.0910    1.0033   -9.3150 H         1 <0>         0.0585
     65 H35         2.9590    1.8621   -6.9926 H         1 <0>         0.0618
     66 H36         4.7334    1.9915   -6.9396 H         1 <0>         0.0883
     67 H37         1.3398    2.1023   -3.9560 H         1 <0>         0.0574
     68 H38         2.9940    1.8678   -4.5700 H         1 <0>         0.0557
     69 H39         1.5978    1.4528   -5.5931 H         1 <0>         0.0574
     70 H40        -0.9892    1.1546    3.9669 H         1 <0>         0.0901
     71 H41         0.2899   -0.0464    3.6675 H         1 <0>         0.0593
     72 H42         0.5276    1.6480    3.1768 H         1 <0>         0.0612
@<TRIPOS>BOND
     1    1    2 1
     2    1   33 1
     3    1   34 1
     4    1   35 1
     5    2    8 1
     6    2   13 1
     7    2    3 1
     8    3    4 1
     9    3   36 1
    10    3   37 1
    11    4    5 1
    12    4   38 1
    13    4   39 1
    14    5    6 2
    15    5    7 am
    16    7    8 1
    17    7   32 1
    18    8    9 1
    19    8   10 1
    20   10   11 1
    21   10   40 1
    22   10   41 1
    23   11   12 1
    24   11   42 1
    25   11   43 1
    26   12   17 1
    27   12   13 1
    28   12   44 1
    29   13   14 1
    30   13   45 1
    31   14   15 1
    32   14   46 1
    33   14   47 1
    34   15   16 1
    35   15   48 1
    36   15   49 1
    37   16   20 1
    38   16   17 1
    39   16   31 1
    40   17   18 1
    41   17   50 1
    42   18   19 1
    43   18   51 1
    44   18   52 1
    45   19   20 1
    46   19   53 1
    47   19   54 1
    48   20   21 1
    49   20   22 1
    50   22   23 am
    51   22   25 1
    52   23   24 2
    53   23   55 1
    54   25   30 1
    55   25   26 1
    56   25   56 1
    57   26   27 1
    58   26   57 1
    59   26   58 1
    60   27   28 1
    61   27   59 1
    62   27   60 1
    63   28   29 1
    64   28   61 1
    65   28   62 1
    66   29   30 1
    67   29   63 1
    68   29   64 1
    69   30   65 1
    70   30   66 1
    71   31   67 1
    72   31   68 1
    73   31   69 1
    74   32   70 1
    75   32   71 1
    76   32   72 1
@<TRIPOS>MOLECULE
CHEMBL16927__1
   72    76     0     0     0
SMALL
USER_CHARGES

@<TRIPOS>ATOM
      1 C1         -1.5122    1.2315   -1.3927 C.3       1 <0>        -0.1516
      2 C2         -1.5336   -0.2744   -1.6623 C.3       1 <0>        -0.0630
      3 C3         -2.8239   -0.6421   -2.3967 C.3       1 <0>        -0.1164
      4 C4         -4.0051   -0.0726   -1.6051 C.3       1 <0>        -0.1346
      5 C5         -3.8593   -0.3879   -0.1450 C.2       1 <0>         0.5169
      6 O1         -4.8379   -0.2776    0.5629 O.2       1 <0>        -0.5554
      7 N1         -2.7153   -0.7834    0.4212 N.am      1 <0>        -0.6000
      8 C6         -1.4976   -1.0303   -0.3333 C.3       1 <0>         0.1534
      9 H1         -1.4249   -2.0979   -0.5404 H         1 <0>         0.0680
     10 C7         -0.2537   -0.6170    0.4498 C.3       1 <0>        -0.1309
     11 C8          0.9916   -0.9743   -0.3684 C.3       1 <0>        -0.1094
     12 C9          0.9555   -0.2491   -1.7129 C.3       1 <0>        -0.0783
     13 C10        -0.3094   -0.6605   -2.4886 C.3       1 <0>        -0.0624
     14 C11        -0.3652    0.0077   -3.8579 C.3       1 <0>        -0.1185
     15 C12         0.9069   -0.2798   -4.6732 C.3       1 <0>        -0.0992
     16 C13         2.0869    0.2107   -3.8577 C.3       1 <0>        -0.0762
     17 C14         2.1488   -0.6430   -2.5624 C.3       1 <0>        -0.0801
     18 C15         3.5237   -0.2619   -2.0028 C.3       1 <0>        -0.1168
     19 C16         4.4191   -0.2310   -3.2716 C.3       1 <0>        -0.1378
     20 C17         3.4689    0.0165   -4.4727 C.3       1 <0>         0.1501
     21 H2          3.4669   -0.8439   -5.1419 H         1 <0>         0.0935
     22 N2          3.8764    1.2231   -5.1967 N.am      1 <0>        -0.6100
     23 C18         4.1412    2.3580   -4.5197 C.2       1 <0>         0.4946
     24 O2          4.3851    3.3813   -5.1233 O.2       1 <0>        -0.5460
     25 C19         3.9961    1.1961   -6.6565 C.3       1 <0>         0.1531
     26 C20         5.4325    1.5387   -7.0569 C.3       1 <0>        -0.1340
     27 C21         5.5575    1.5105   -8.5815 C.3       1 <0>        -0.1142
     28 C22         4.5998    2.5364   -9.1908 C.3       1 <0>        -0.1213
     29 C23         3.1634    2.1937   -8.7904 C.3       1 <0>        -0.1149
     30 C24         3.0384    2.2219   -7.2658 C.3       1 <0>        -0.1350
     31 C25         1.8861    1.6826   -3.4915 C.3       1 <0>        -0.1603
     32 C26        -2.6869   -0.9775    1.8730 C.3       1 <0>         0.0691
     33 H3         -0.6022    1.4908   -0.8516 H         1 <0>         0.0657
     34 H4         -1.5378    1.7705   -2.3398 H         1 <0>         0.0629
     35 H5         -2.3812    1.5060   -0.7948 H         1 <0>         0.0550
     36 H6         -2.8118   -0.2128   -3.3986 H         1 <0>         0.0830
     37 H7         -2.9136   -1.7264   -2.4619 H         1 <0>         0.0708
     38 H8         -4.0404    1.0086   -1.7384 H         1 <0>         0.1015
     39 H9         -4.9320   -0.5090   -1.9771 H         1 <0>         0.0994
     40 H10        -0.2762    0.4579    0.6295 H         1 <0>         0.0735
     41 H11        -0.2292   -1.1471    1.4019 H         1 <0>         0.0710
     42 H12         1.8841   -0.6747    0.1809 H         1 <0>         0.0704
     43 H13         1.0167   -2.0507   -0.5382 H         1 <0>         0.0646
     44 H14         0.9626    0.8284   -1.5482 H         1 <0>         0.0862
     45 H15        -0.3043   -1.7411   -2.6308 H         1 <0>         0.0716
     46 H16        -1.2310   -0.3680   -4.4032 H         1 <0>         0.0655
     47 H17        -0.4683    1.0847   -3.7254 H         1 <0>         0.0709
     48 H18         0.9989   -1.3512   -4.8511 H         1 <0>         0.0650
     49 H19         0.8663    0.2525   -5.6236 H         1 <0>         0.0642
     50 H20         2.1065   -1.7046   -2.8063 H         1 <0>         0.0797
     51 H21         3.4893    0.7202   -1.5311 H         1 <0>         0.0699
     52 H22         3.8767   -1.0164   -1.2999 H         1 <0>         0.0712
     53 H23         5.1484    0.5754   -3.1953 H         1 <0>         0.0711
     54 H24         4.9288   -1.1868   -3.3931 H         1 <0>         0.0754
     55 H25         4.1362    2.3563   -3.4397 H         1 <0>         0.1216
     56 H26         3.7442    0.2011   -7.0234 H         1 <0>         0.0796
     57 H27         5.6844    2.5337   -6.6900 H         1 <0>         0.0817
     58 H28         6.1148    0.8079   -6.6228 H         1 <0>         0.0586
     59 H29         6.5808    1.7546   -8.8667 H         1 <0>         0.0633
     60 H30         5.3056    0.5155   -8.9484 H         1 <0>         0.0596
     61 H31         4.8517    3.5314   -8.8239 H         1 <0>         0.0641
     62 H32         4.6888    2.5163  -10.2770 H         1 <0>         0.0608
     63 H33         2.4810    2.9246   -9.2245 H         1 <0>         0.0628
     64 H34         2.9114    1.1987   -9.1573 H         1 <0>         0.0586
     65 H35         2.0150    1.9779   -6.9806 H         1 <0>         0.0575
     66 H36         3.2903    3.2170   -6.8990 H         1 <0>         0.0885
     67 H37         0.9115    1.8101   -3.0203 H         1 <0>         0.0719
     68 H38         2.6681    1.9947   -2.7993 H         1 <0>         0.0589
     69 H39         1.9357    2.2915   -4.3942 H         1 <0>         0.0608
     70 H40        -3.6693   -0.7536    2.2888 H         1 <0>         0.0902
     71 H41        -2.4251   -2.0118    2.0962 H         1 <0>         0.0592
     72 H42        -1.9453   -0.3117    2.3143 H         1 <0>         0.0613
@<TRIPOS>BOND
     1    1    2 1
     2    1   33 1
     3    1   34 1
     4    1   35 1
     5    2    8 1
     6    2   13 1
     7    2    3 1
     8    3    4 1
     9    3   36 1
    10    3   37 1
    11    4    5 1
    12    4   38 1
    13    4   39 1
    14    5    6 2
    15    5    7 am
    16    7    8 1
    17    7   32 1
    18    8    9 1
    19    8   10 1
    20   10   11 1
    21   10   40 1
    22   10   41 1
    23   11   12 1
    24   11   42 1
    25   11   43 1
    26   12   17 1
    27   12   13 1
    28   12   44 1
    29   13   14 1
    30   13   45 1
    31   14   15 1
    32   14   46 1
    33   14   47 1
    34   15   16 1
    35   15   48 1
    36   15   49 1
    37   16   20 1
    38   16   17 1
    39   16   31 1
    40   17   18 1
    41   17   50 1
    42   18   19 1
    43   18   51 1
    44   18   52 1
    45   19   20 1
    46   19   53 1
    47   19   54 1
    48   20   21 1
    49   20   22 1
    50   22   23 am
    51   22   25 1
    52   23   24 2
    53   23   55 1
    54   25   30 1
    55   25   26 1
    56   25   56 1
    57   26   27 1
    58   26   57 1
    59   26   58 1
    60   27   28 1
    61   27   59 1
    62   27   60 1
    63   28   29 1
    64   28   61 1
    65   28   62 1
    66   29   30 1
    67   29   63 1
    68   29   64 1
    69   30   65 1
    70   30   66 1
    71   31   67 1
    72   31   68 1
    73   31   69 1
    74   32   70 1
    75   32   71 1
    76   32   72 1
@<TRIPOS>MOLECULE
CHEMBL16927__2
   72    76     0     0     0
SMALL
USER_CHARGES

@<TRIPOS>ATOM
      1 C1         -0.0447    1.4115    0.1402 C.3       1 <0>        -0.1506
      2 C2          0.0127   -0.1174    0.1383 C.3       1 <0>        -0.0638
      3 C3         -1.4055   -0.6799    0.2409 C.3       1 <0>        -0.1143
      4 C4         -2.0957   -0.0215    1.4396 C.3       1 <0>        -0.1350
      5 C5         -1.1941   -0.0397    2.6393 C.2       1 <0>         0.5166
      6 O1         -1.6891    0.1631    3.7278 O.2       1 <0>        -0.5558
      7 N1          0.1216   -0.2663    2.5798 N.am      1 <0>        -0.6000
      8 C6          0.8170   -0.5978    1.3469 C.3       1 <0>         0.1500
      9 H1          0.9266   -1.6806    1.2868 H         1 <0>         0.0714
     10 C7          2.2118    0.0222    1.3012 C.3       1 <0>        -0.1346
     11 C8          2.9152   -0.4298    0.0173 C.3       1 <0>        -0.1488
     12 C9          2.1029    0.0062   -1.2023 C.3       1 <0>        -0.0770
     13 C10         0.6972   -0.5991   -1.1403 C.3       1 <0>        -0.0626
     14 C11         0.8220   -2.1265   -1.1047 C.3       1 <0>        -0.1224
     15 C12         1.4638   -2.5886   -2.4125 C.3       1 <0>        -0.1023
     16 C13         2.8298   -1.9705   -2.6029 C.3       1 <0>        -0.0659
     17 C14         2.8224   -0.4275   -2.4807 C.3       1 <0>        -0.0726
     18 C15         4.3336   -0.1170   -2.2675 C.3       1 <0>        -0.1229
     19 C16         4.8173   -1.2526   -1.3394 C.3       1 <0>        -0.1629
     20 C17         3.8437   -2.4429   -1.5528 C.3       1 <0>         0.1425
     21 H2          3.3341   -2.6821   -0.6194 H         1 <0>         0.1040
     22 N2          4.5727   -3.6142   -2.0456 N.am      1 <0>        -0.6116
     23 C18         5.4297   -3.4892   -3.0782 C.2       1 <0>         0.4953
     24 O2          5.9600   -4.4733   -3.5487 O.2       1 <0>        -0.5461
     25 C19         4.3699   -4.9214   -1.4160 C.3       1 <0>         0.1537
     26 C20         5.7000   -5.4295   -0.8560 C.3       1 <0>        -0.1339
     27 C21         5.4883   -6.7947   -0.1985 C.3       1 <0>        -0.1143
     28 C22         4.9611   -7.7854   -1.2384 C.3       1 <0>        -0.1213
     29 C23         3.6310   -7.2773   -1.7985 C.3       1 <0>        -0.1149
     30 C24         3.8427   -5.9121   -2.4560 C.3       1 <0>        -0.1360
     31 C25         3.3512   -2.3343   -3.9946 C.3       1 <0>        -0.1589
     32 C26         0.9011   -0.1753    3.8168 C.3       1 <0>         0.0690
     33 H3          0.9672    1.8131    0.0865 H         1 <0>         0.0665
     34 H4         -0.6179    1.7546   -0.7211 H         1 <0>         0.0608
     35 H5         -0.5242    1.7560    1.0564 H         1 <0>         0.0551
     36 H6         -1.9577   -0.4538   -0.6712 H         1 <0>         0.0799
     37 H7         -1.3633   -1.7591    0.3880 H         1 <0>         0.0726
     38 H8         -2.3435    1.0104    1.1906 H         1 <0>         0.1015
     39 H9         -3.0128   -0.5637    1.6698 H         1 <0>         0.0994
     40 H10         2.1284    1.1090    1.3084 H         1 <0>         0.0727
     41 H11         2.7861   -0.3070    2.1672 H         1 <0>         0.0698
     42 H12         3.9074    0.0191   -0.0292 H         1 <0>         0.0932
     43 H13         3.0103   -1.5156    0.0196 H         1 <0>         0.0851
     44 H14         2.0128    1.0925   -1.1978 H         1 <0>         0.0766
     45 H15         0.1202   -0.2862   -2.0106 H         1 <0>         0.0816
     46 H16         1.4479   -2.4241   -0.2634 H         1 <0>         0.0675
     47 H17        -0.1670   -2.5733   -1.0031 H         1 <0>         0.0681
     48 H18         1.5622   -3.6741   -2.3977 H         1 <0>         0.0626
     49 H19         0.8227   -2.3009   -3.2458 H         1 <0>         0.0661
     50 H20         2.4103    0.0541   -3.3674 H         1 <0>         0.0878
     51 H21         4.8677   -0.1454   -3.2173 H         1 <0>         0.0670
     52 H22         4.4607    0.8520   -1.7849 H         1 <0>         0.0733
     53 H23         5.8319   -1.5476   -1.6071 H         1 <0>         0.0665
     54 H24         4.7845   -0.9254   -0.3001 H         1 <0>         0.1022
     55 H25         5.6443   -2.5128   -3.4867 H         1 <0>         0.1211
     56 H26         3.6472   -4.8263   -0.6057 H         1 <0>         0.0784
     57 H27         6.4228   -5.5247   -1.6663 H         1 <0>         0.0820
     58 H28         6.0756   -4.7238   -0.1151 H         1 <0>         0.0587
     59 H29         6.4359   -7.1567    0.2005 H         1 <0>         0.0635
     60 H30         4.7655   -6.6996    0.6118 H         1 <0>         0.0594
     61 H31         5.6839   -7.8806   -2.0488 H         1 <0>         0.0642
     62 H32         4.8103   -8.7580   -0.7700 H         1 <0>         0.0609
     63 H33         3.2554   -7.9831   -2.5393 H         1 <0>         0.0630
     64 H34         2.9082   -7.1821   -0.9881 H         1 <0>         0.0585
     65 H35         2.8951   -5.5501   -2.8550 H         1 <0>         0.0576
     66 H36         4.5655   -6.0073   -3.2663 H         1 <0>         0.0890
     67 H37         2.6259   -2.0242   -4.7468 H         1 <0>         0.0599
     68 H38         4.2987   -1.8256   -4.1720 H         1 <0>         0.0608
     69 H39         3.5004   -3.4123   -4.0563 H         1 <0>         0.0635
     70 H40         0.2399    0.0799    4.6450 H         1 <0>         0.0900
     71 H41         1.3796   -1.1342    4.0161 H         1 <0>         0.0588
     72 H42         1.6638    0.5960    3.7098 H         1 <0>         0.0611
@<TRIPOS>BOND
     1    1    2 1
     2    1   33 1
     3    1   34 1
     4    1   35 1
     5    2    8 1
     6    2   13 1
     7    2    3 1
     8    3    4 1
     9    3   36 1
    10    3   37 1
    11    4    5 1
    12    4   38 1
    13    4   39 1
    14    5    6 2
    15    5    7 am
    16    7    8 1
    17    7   32 1
    18    8    9 1
    19    8   10 1
    20   10   11 1
    21   10   40 1
    22   10   41 1
    23   11   12 1
    24   11   42 1
    25   11   43 1
    26   12   17 1
    27   12   13 1
    28   12   44 1
    29   13   14 1
    30   13   45 1
    31   14   15 1
    32   14   46 1
    33   14   47 1
    34   15   16 1
    35   15   48 1
    36   15   49 1
    37   16   20 1
    38   16   17 1
    39   16   31 1
    40   17   18 1
    41   17   50 1
    42   18   19 1
    43   18   51 1
    44   18   52 1
    45   19   20 1
    46   19   53 1
    47   19   54 1
    48   20   21 1
    49   20   22 1
    50   22   23 am
    51   22   25 1
    52   23   24 2
    53   23   55 1
    54   25   30 1
    55   25   26 1
    56   25   56 1
    57   26   27 1
    58   26   57 1
    59   26   58 1
    60   27   28 1
    61   27   59 1
    62   27   60 1
    63   28   29 1
    64   28   61 1
    65   28   62 1
    66   29   30 1
    67   29   63 1
    68   29   64 1
    69   30   65 1
    70   30   66 1
    71   31   67 1
    72   31   68 1
    73   31   69 1
    74   32   70 1
    75   32   71 1
    76   32   72 1
@<TRIPOS>MOLECULE
CHEMBL16927__3
   72    76     0     0     0
SMALL
USER_CHARGES

@<TRIPOS>ATOM
      1 C1         -0.4335    1.2929    0.3504 C.3       1 <0>        -0.1473
      2 C2         -0.2282   -0.2237    0.3190 C.3       1 <0>        -0.0646
      3 C3         -1.5991   -0.9116    0.3603 C.3       1 <0>        -0.1157
      4 C4         -2.3890   -0.3734    1.5556 C.3       1 <0>        -0.1351
      5 C5         -1.5225   -0.3134    2.7794 C.2       1 <0>         0.5167
      6 O1         -2.0598   -0.1449    3.8526 O.2       1 <0>        -0.5546
      7 N1         -0.1889   -0.4338    2.7566 N.am      1 <0>        -0.6011
      8 C6          0.5652   -0.6778    1.5388 C.3       1 <0>         0.1578
      9 H1          0.7133   -1.7647    1.4584 H         1 <0>         0.0658
     10 C7          1.9387   -0.0198    1.5359 C.3       1 <0>        -0.1255
     11 C8          2.6804   -0.4585    0.2722 C.3       1 <0>        -0.1114
     12 C9          1.9215   -0.0448   -0.9973 C.3       1 <0>        -0.0609
     13 C10         0.4977   -0.5825   -0.9774 C.3       1 <0>        -0.0639
     14 C11         0.4175   -2.0719   -1.2565 C.3       1 <0>        -0.1104
     15 C12         1.1142   -2.4920   -2.5564 C.3       1 <0>        -0.0968
     16 C13         1.8024   -1.3179   -3.2044 C.3       1 <0>        -0.0666
     17 C14         2.6930   -0.6055   -2.1693 C.3       1 <0>        -0.0801
     18 C15         3.4580    0.3949   -3.0455 C.3       1 <0>        -0.1161
     19 C16         3.7750   -0.4397   -4.3190 C.3       1 <0>        -0.1398
     20 C17         2.8792   -1.7032   -4.2484 C.3       1 <0>         0.1410
     21 H2          3.4393   -2.5604   -3.9006 H         1 <0>         0.0951
     22 N2          2.2433   -1.9570   -5.5386 N.am      1 <0>        -0.6093
     23 C18         1.6917   -0.9398   -6.2297 C.2       1 <0>         0.4916
     24 O2          1.0847   -1.1626   -7.2558 O.2       1 <0>        -0.5466
     25 C19         2.2050   -3.3171   -6.0814 C.3       1 <0>         0.1532
     26 C20         2.9301   -3.3493   -7.4283 C.3       1 <0>        -0.1343
     27 C21         2.8902   -4.7699   -7.9952 C.3       1 <0>        -0.1142
     28 C22         1.4350   -5.2009   -8.1890 C.3       1 <0>        -0.1213
     29 C23         0.7098   -5.1687   -6.8421 C.3       1 <0>        -0.1149
     30 C24         0.7498   -3.7482   -6.2752 C.3       1 <0>        -0.1351
     31 C25         0.8245   -0.3938   -3.9205 C.3       1 <0>        -0.1597
     32 C26         0.5190   -0.3226    4.0341 C.3       1 <0>         0.0686
     33 H3          0.5361    1.7909    0.3487 H         1 <0>         0.0627
     34 H4         -1.0017    1.6008   -0.5273 H         1 <0>         0.0610
     35 H5         -0.9811    1.5668    1.2522 H         1 <0>         0.0552
     36 H6         -2.1371   -0.6999   -0.5636 H         1 <0>         0.0792
     37 H7         -1.4615   -1.9878    0.4679 H         1 <0>         0.0732
     38 H8         -2.7933    0.6104    1.3345 H         1 <0>         0.1027
     39 H9         -3.2269   -1.0509    1.7548 H         1 <0>         0.0977
     40 H10         1.8666    1.0609    1.5751 H         1 <0>         0.0744
     41 H11         2.5200   -0.3662    2.3992 H         1 <0>         0.0677
     42 H12         3.6691    0.0019    0.2570 H         1 <0>         0.0677
     43 H13         2.7928   -1.5433    0.2790 H         1 <0>         0.0650
     44 H14         1.9138    1.0483   -1.0582 H         1 <0>         0.0765
     45 H15        -0.0900   -0.0504   -1.7429 H         1 <0>         0.0802
     46 H16         0.8665   -2.6221   -0.4182 H         1 <0>         0.0589
     47 H17        -0.6377   -2.3737   -1.3101 H         1 <0>         0.0644
     48 H18         1.8517   -3.2770   -2.3384 H         1 <0>         0.0607
     49 H19         0.3748   -2.9161   -3.2489 H         1 <0>         0.0615
     50 H20         3.4308   -1.3371   -1.7752 H         1 <0>         0.0745
     51 H21         2.8544    1.2650   -3.2846 H         1 <0>         0.0724
     52 H22         4.3853    0.6998   -2.5549 H         1 <0>         0.0682
     53 H23         3.5376    0.1377   -5.2116 H         1 <0>         0.0710
     54 H24         4.8253   -0.7263   -4.3240 H         1 <0>         0.0737
     55 H25         1.7903    0.0737   -5.8698 H         1 <0>         0.1243
     56 H26         2.6966   -3.9992   -5.3877 H         1 <0>         0.0792
     57 H27         2.4385   -2.6673   -8.1220 H         1 <0>         0.0821
     58 H28         3.9668   -3.0423   -7.2902 H         1 <0>         0.0583
     59 H29         3.4068   -4.7928   -8.9547 H         1 <0>         0.0634
     60 H30         3.3818   -5.4519   -7.3014 H         1 <0>         0.0595
     61 H31         0.9433   -4.5189   -8.8827 H         1 <0>         0.0642
     62 H32         1.4065   -6.2129   -8.5928 H         1 <0>         0.0608
     63 H33        -0.3269   -5.4758   -6.9802 H         1 <0>         0.0629
     64 H34         1.2015   -5.8507   -6.1484 H         1 <0>         0.0585
     65 H35         0.2332   -3.7252   -5.3157 H         1 <0>         0.0581
     66 H36         0.2582   -3.0661   -6.9689 H         1 <0>         0.0884
     67 H37         0.0620   -0.0572   -3.2181 H         1 <0>         0.0708
     68 H38         1.3619    0.4689   -4.3144 H         1 <0>         0.0625
     69 H39         0.3503   -0.9322   -4.7411 H         1 <0>         0.0640
     70 H40        -0.2007   -0.1506    4.8344 H         1 <0>         0.0921
     71 H41         1.0649   -1.2457    4.2285 H         1 <0>         0.0583
     72 H42         1.2195    0.5114    3.9899 H         1 <0>         0.0599
@<TRIPOS>BOND
     1    1    2 1
     2    1   33 1
     3    1   34 1
     4    1   35 1
     5    2    8 1
     6    2   13 1
     7    2    3 1
     8    3    4 1
     9    3   36 1
    10    3   37 1
    11    4    5 1
    12    4   38 1
    13    4   39 1
    14    5    6 2
    15    5    7 am
    16    7    8 1
    17    7   32 1
    18    8    9 1
    19    8   10 1
    20   10   11 1
    21   10   40 1
    22   10   41 1
    23   11   12 1
    24   11   42 1
    25   11   43 1
    26   12   17 1
    27   12   13 1
    28   12   44 1
    29   13   14 1
    30   13   45 1
    31   14   15 1
    32   14   46 1
    33   14   47 1
    34   15   16 1
    35   15   48 1
    36   15   49 1
    37   16   20 1
    38   16   17 1
    39   16   31 1
    40   17   18 1
    41   17   50 1
    42   18   19 1
    43   18   51 1
    44   18   52 1
    45   19   20 1
    46   19   53 1
    47   19   54 1
    48   20   21 1
    49   20   22 1
    50   22   23 am
    51   22   25 1
    52   23   24 2
    53   23   55 1
    54   25   30 1
    55   25   26 1
    56   25   56 1
    57   26   27 1
    58   26   57 1
    59   26   58 1
    60   27   28 1
    61   27   59 1
    62   27   60 1
    63   28   29 1
    64   28   61 1
    65   28   62 1
    66   29   30 1
    67   29   63 1
    68   29   64 1
    69   30   65 1
    70   30   66 1
    71   31   67 1
    72   31   68 1
    73   31   69 1
    74   32   70 1
    75   32   71 1
    76   32   72 1
@<TRIPOS>MOLECULE
CHEMBL16927__4
   72    76     0     0     0
SMALL
USER_CHARGES

@<TRIPOS>ATOM
      1 C1          0.3489    1.5563    0.2069 C.3       1 <0>        -0.1491
      2 C2          0.4898    0.0389    0.2537 C.3       1 <0>        -0.0521
      3 C3         -0.8358   -0.5730    0.7398 C.3       1 <0>        -0.1192
      4 C4         -1.2775    0.1340    2.0218 C.3       1 <0>        -0.1339
      5 C5         -0.1227    0.3005    2.9647 C.2       1 <0>         0.5175
      6 O1         -0.3579    0.6248    4.1083 O.2       1 <0>        -0.5537
      7 N1          1.1566    0.1126    2.6133 N.am      1 <0>        -0.6001
      8 C6          1.5545   -0.3397    1.2939 C.3       1 <0>         0.1546
      9 H1          1.6051   -1.4367    1.3207 H         1 <0>         0.0624
     10 C7          2.9143    0.1791    0.8518 C.3       1 <0>        -0.1244
     11 C8          3.3043   -0.5218   -0.4557 C.3       1 <0>        -0.1126
     12 C9          2.2759   -0.2487   -1.5492 C.3       1 <0>        -0.0699
     13 C10         0.8652   -0.5536   -1.0898 C.3       1 <0>        -0.0571
     14 C11        -0.1479   -0.2827   -2.1913 C.3       1 <0>        -0.1063
     15 C12        -0.0035    1.0964   -2.8116 C.3       1 <0>        -0.1050
     16 C13         1.4108    1.4217   -3.2292 C.3       1 <0>        -0.0610
     17 C14         2.4540    1.1483   -2.1313 C.3       1 <0>        -0.0679
     18 C15         3.7819    1.1277   -2.9468 C.3       1 <0>        -0.1285
     19 C16         3.4071    0.4881   -4.2991 C.3       1 <0>        -0.1381
     20 C17         1.8766    0.6021   -4.4390 C.3       1 <0>         0.1494
     21 H2          1.4210   -0.3870   -4.4254 H         1 <0>         0.0939
     22 N2          1.5343    1.2987   -5.6820 N.am      1 <0>        -0.6105
     23 C18         2.1650    2.4442   -6.0083 C.2       1 <0>         0.4902
     24 O2          1.9343    2.9821   -7.0705 O.2       1 <0>        -0.5458
     25 C19         0.5065    0.7498   -6.5700 C.3       1 <0>         0.1530
     26 C20         1.1202    0.4565   -7.9405 C.3       1 <0>        -0.1364
     27 C21         0.0468   -0.1167   -8.8679 C.3       1 <0>        -0.1146
     28 C22        -1.0874    0.8982   -9.0238 C.3       1 <0>        -0.1214
     29 C23        -1.7012    1.1916   -7.6534 C.3       1 <0>        -0.1142
     30 C24        -0.6278    1.7648   -6.7259 C.3       1 <0>        -0.1334
     31 C25         1.4714    2.9096   -3.5987 C.3       1 <0>        -0.1591
     32 C26         2.1768    0.3748    3.6315 C.3       1 <0>         0.0689
     33 H3          1.2696    1.9950   -0.1778 H         1 <0>         0.0666
     34 H4         -0.4817    1.8241   -0.4461 H         1 <0>         0.0645
     35 H5          0.1581    1.9346    1.2112 H         1 <0>         0.0518
     36 H6         -1.5971   -0.4482   -0.0287 H         1 <0>         0.0812
     37 H7         -0.6848   -1.6349    0.9383 H         1 <0>         0.0694
     38 H8         -1.7186    1.0999    1.7942 H         1 <0>         0.1027
     39 H9         -2.0408   -0.4802    2.5148 H         1 <0>         0.0969
     40 H10         2.9050    1.2538    0.7100 H         1 <0>         0.0749
     41 H11         3.6747   -0.0731    1.5995 H         1 <0>         0.0669
     42 H12         4.2876   -0.1685   -0.7685 H         1 <0>         0.0741
     43 H13         3.3626   -1.5990   -0.2737 H         1 <0>         0.0638
     44 H14         2.5031   -0.9637   -2.3746 H         1 <0>         0.0680
     45 H15         0.8376   -1.6685   -0.9355 H         1 <0>         0.0597
     46 H16        -0.0216   -1.0407   -2.9800 H         1 <0>         0.0589
     47 H17        -1.1640   -0.4009   -1.7985 H         1 <0>         0.0681
     48 H18        -0.6263    1.1181   -3.7254 H         1 <0>         0.0549
     49 H19        -0.3943    1.8717   -2.1643 H         1 <0>         0.0725
     50 H20         2.4665    1.9282   -1.3698 H         1 <0>         0.0901
     51 H21         4.1616    2.1398   -3.0899 H         1 <0>         0.0668
     52 H22         4.5349    0.5219   -2.4387 H         1 <0>         0.0733
     53 H23         3.8958    1.0247   -5.1146 H         1 <0>         0.0699
     54 H24         3.7082   -0.5600   -4.3158 H         1 <0>         0.0743
     55 H25         2.8758    2.8831   -5.3238 H         1 <0>         0.1252
     56 H26         0.1125   -0.1726   -6.1434 H         1 <0>         0.0793
     57 H27         1.5142    1.3789   -8.3672 H         1 <0>         0.0881
     58 H28         1.9283   -0.2666   -7.8294 H         1 <0>         0.0573
     59 H29         0.4841   -0.3257   -9.8442 H         1 <0>         0.0631
     60 H30        -0.3472   -1.0392   -8.4412 H         1 <0>         0.0587
     61 H31        -0.6935    1.8207   -9.4505 H         1 <0>         0.0641
     62 H32        -1.8521    0.4899   -9.6845 H         1 <0>         0.0609
     63 H33        -2.5092    1.9147   -7.7644 H         1 <0>         0.0632
     64 H34        -2.0951    0.2692   -7.2267 H         1 <0>         0.0594
     65 H35        -1.0650    1.9738   -5.7496 H         1 <0>         0.0590
     66 H36        -0.2338    2.6872   -7.1526 H         1 <0>         0.0823
     67 H37         1.0962    3.5061   -2.7671 H         1 <0>         0.0600
     68 H38         2.5034    3.1897   -3.8101 H         1 <0>         0.0610
     69 H39         0.8578    3.0901   -4.4813 H         1 <0>         0.0632
     70 H40         1.6947    0.6964    4.5546 H         1 <0>         0.0921
     71 H41         2.7469   -0.5355    3.8174 H         1 <0>         0.0583
     72 H42         2.8480    1.1584    3.2800 H         1 <0>         0.0599
@<TRIPOS>BOND
     1    1    2 1
     2    1   33 1
     3    1   34 1
     4    1   35 1
     5    2    8 1
     6    2   13 1
     7    2    3 1
     8    3    4 1
     9    3   36 1
    10    3   37 1
    11    4    5 1
    12    4   38 1
    13    4   39 1
    14    5    6 2
    15    5    7 am
    16    7    8 1
    17    7   32 1
    18    8    9 1
    19    8   10 1
    20   10   11 1
    21   10   40 1
    22   10   41 1
    23   11   12 1
    24   11   42 1
    25   11   43 1
    26   12   17 1
    27   12   13 1
    28   12   44 1
    29   13   14 1
    30   13   45 1
    31   14   15 1
    32   14   46 1
    33   14   47 1
    34   15   16 1
    35   15   48 1
    36   15   49 1
    37   16   20 1
    38   16   17 1
    39   16   31 1
    40   17   18 1
    41   17   50 1
    42   18   19 1
    43   18   51 1
    44   18   52 1
    45   19   20 1
    46   19   53 1
    47   19   54 1
    48   20   21 1
    49   20   22 1
    50   22   23 am
    51   22   25 1
    52   23   24 2
    53   23   55 1
    54   25   30 1
    55   25   26 1
    56   25   56 1
    57   26   27 1
    58   26   57 1
    59   26   58 1
    60   27   28 1
    61   27   59 1
    62   27   60 1
    63   28   29 1
    64   28   61 1
    65   28   62 1
    66   29   30 1
    67   29   63 1
    68   29   64 1
    69   30   65 1
    70   30   66 1
    71   31   67 1
    72   31   68 1
    73   31   69 1
    74   32   70 1
    75   32   71 1
    76   32   72 1
@<TRIPOS>MOLECULE
CHEMBL16927__5
   72    76     0     0     0
SMALL
USER_CHARGES

@<TRIPOS>ATOM
      1 C1         -0.3244    1.5663   -0.1931 C.3       1 <0>        -0.1437
      2 C2         -0.2351    0.0445   -0.1247 C.3       1 <0>        -0.0587
      3 C3         -1.6546   -0.5452   -0.0837 C.3       1 <0>        -0.1155
      4 C4         -2.4481    0.1148    1.0435 C.3       1 <0>        -0.1349
      5 C5         -1.6264    0.1745    2.2981 C.2       1 <0>         0.5165
      6 O1         -2.1914    0.4243    3.3416 O.2       1 <0>        -0.5555
      7 N1         -0.3062   -0.0319    2.3294 N.am      1 <0>        -0.6019
      8 C6          0.4831   -0.3805    1.1568 C.3       1 <0>         0.1572
      9 H1          0.5661   -1.4758    1.1450 H         1 <0>         0.0671
     10 C7          1.8891    0.1984    1.2261 C.3       1 <0>        -0.1284
     11 C8          2.6172   -0.0396   -0.1075 C.3       1 <0>        -0.1091
     12 C9          1.8556   -1.0830   -0.9076 C.3       1 <0>        -0.0674
     13 C10         0.4934   -0.5213   -1.3398 C.3       1 <0>        -0.0635
     14 C11         0.6341    0.4836   -2.4706 C.3       1 <0>        -0.1078
     15 C12         1.3214   -0.1656   -3.6898 C.3       1 <0>        -0.1024
     16 C13         2.6972   -0.6275   -3.2686 C.3       1 <0>        -0.0697
     17 C14         2.5658   -1.6291   -2.1037 C.3       1 <0>        -0.0747
     18 C15         4.0101   -2.1199   -1.9503 C.3       1 <0>        -0.1156
     19 C16         4.4542   -2.3035   -3.4305 C.3       1 <0>        -0.1394
     20 C17         3.4497   -1.4973   -4.2952 C.3       1 <0>         0.1435
     21 H2          2.7562   -2.1588   -4.7998 H         1 <0>         0.0945
     22 N2          4.1610   -0.6418   -5.2431 N.am      1 <0>        -0.6094
     23 C18         5.2139    0.0913   -4.8304 C.2       1 <0>         0.4927
     24 O2          5.7436    0.8735   -5.5911 O.2       1 <0>        -0.5467
     25 C19         3.7294   -0.5813   -6.6418 C.3       1 <0>         0.1532
     26 C20         4.8746   -1.0358   -7.5490 C.3       1 <0>        -0.1341
     27 C21         4.4238   -0.9725   -9.0097 C.3       1 <0>        -0.1142
     28 C22         4.0341    0.4646   -9.3615 C.3       1 <0>        -0.1213
     29 C23         2.8890    0.9190   -8.4542 C.3       1 <0>        -0.1149
     30 C24         3.3397    0.8558   -6.9935 C.3       1 <0>        -0.1351
     31 C25         3.5950    0.5630   -2.9439 C.3       1 <0>        -0.1582
     32 C26         0.3694    0.0955    3.6242 C.3       1 <0>         0.0679
     33 H3          0.6799    1.9898   -0.1877 H         1 <0>         0.0612
     34 H4         -0.8374    1.8593   -1.1092 H         1 <0>         0.0641
     35 H5         -0.8797    1.9367    0.6686 H         1 <0>         0.0535
     36 H6         -2.1464   -0.3612   -1.0388 H         1 <0>         0.0793
     37 H7         -1.5902   -1.6200    0.0914 H         1 <0>         0.0703
     38 H8         -2.7673    1.1125    0.7578 H         1 <0>         0.1029
     39 H9         -3.3426   -0.4881    1.2439 H         1 <0>         0.0979
     40 H10         1.8583    1.2658    1.4337 H         1 <0>         0.0717
     41 H11         2.4595   -0.3024    2.0137 H         1 <0>         0.0676
     42 H12         2.6454    0.9120   -0.6374 H         1 <0>         0.0723
     43 H13         3.6298   -0.3821    0.0946 H         1 <0>         0.0701
     44 H14         1.6523   -1.9382   -0.2260 H         1 <0>         0.0690
     45 H15        -0.1060   -1.3662   -1.7191 H         1 <0>         0.0700
     46 H16        -0.3565    0.8198   -2.7870 H         1 <0>         0.0629
     47 H17         1.2239    1.3405   -2.1604 H         1 <0>         0.0695
     48 H18         0.7285   -1.0139   -4.0323 H         1 <0>         0.0630
     49 H19         1.4035    0.5715   -4.4916 H         1 <0>         0.0645
     50 H20         1.9725   -2.4993   -2.4777 H         1 <0>         0.0700
     51 H21         4.6324   -1.3955   -1.4363 H         1 <0>         0.0739
     52 H22         4.0314   -3.0811   -1.4291 H         1 <0>         0.0683
     53 H23         5.4635   -1.9196   -3.5685 H         1 <0>         0.0712
     54 H24         4.4137   -3.3590   -3.7007 H         1 <0>         0.0740
     55 H25         5.5860   -0.0177   -3.8224 H         1 <0>         0.1236
     56 H26         2.8701   -1.2363   -6.7855 H         1 <0>         0.0794
     57 H27         5.7339   -0.3807   -7.4052 H         1 <0>         0.0818
     58 H28         5.1522   -2.0596   -7.2984 H         1 <0>         0.0584
     59 H29         5.2397   -1.2963   -9.6560 H         1 <0>         0.0633
     60 H30         3.5646   -1.6276   -9.1535 H         1 <0>         0.0595
     61 H31         4.8934    1.1196   -9.2177 H         1 <0>         0.0641
     62 H32         3.7130    0.5096  -10.4021 H         1 <0>         0.0608
     63 H33         2.6113    1.9429   -8.7048 H         1 <0>         0.0628
     64 H34         2.0297    0.2640   -8.5980 H         1 <0>         0.0586
     65 H35         2.5239    1.1796   -6.3472 H         1 <0>         0.0579
     66 H36         4.1990    1.5108   -6.8497 H         1 <0>         0.0886
     67 H37         3.1134    1.1867   -2.1908 H         1 <0>         0.0691
     68 H38         4.5504    0.2039   -2.5613 H         1 <0>         0.0614
     69 H39         3.7626    1.1489   -3.8477 H         1 <0>         0.0625
     70 H40        -0.3609    0.3525    4.3913 H         1 <0>         0.0915
     71 H41         0.8468   -0.8506    3.8794 H         1 <0>         0.0588
     72 H42         1.1247    0.8791    3.5644 H         1 <0>         0.0606
@<TRIPOS>BOND
     1    1    2 1
     2    1   33 1
     3    1   34 1
     4    1   35 1
     5    2    8 1
     6    2   13 1
     7    2    3 1
     8    3    4 1
     9    3   36 1
    10    3   37 1
    11    4    5 1
    12    4   38 1
    13    4   39 1
    14    5    6 2
    15    5    7 am
    16    7    8 1
    17    7   32 1
    18    8    9 1
    19    8   10 1
    20   10   11 1
    21   10   40 1
    22   10   41 1
    23   11   12 1
    24   11   42 1
    25   11   43 1
    26   12   17 1
    27   12   13 1
    28   12   44 1
    29   13   14 1
    30   13   45 1
    31   14   15 1
    32   14   46 1
    33   14   47 1
    34   15   16 1
    35   15   48 1
    36   15   49 1
    37   16   20 1
    38   16   17 1
    39   16   31 1
    40   17   18 1
    41   17   50 1
    42   18   19 1
    43   18   51 1
    44   18   52 1
    45   19   20 1
    46   19   53 1
    47   19   54 1
    48   20   21 1
    49   20   22 1
    50   22   23 am
    51   22   25 1
    52   23   24 2
    53   23   55 1
    54   25   30 1
    55   25   26 1
    56   25   56 1
    57   26   27 1
    58   26   57 1
    59   26   58 1
    60   27   28 1
    61   27   59 1
    62   27   60 1
    63   28   29 1
    64   28   61 1
    65   28   62 1
    66   29   30 1
    67   29   63 1
    68   29   64 1
    69   30   65 1
    70   30   66 1
    71   31   67 1
    72   31   68 1
    73   31   69 1
    74   32   70 1
    75   32   71 1
    76   32   72 1
@<TRIPOS>MOLECULE
CHEMBL16927__6
   72    76     0     0     0
SMALL
USER_CHARGES

@<TRIPOS>ATOM
      1 C1         -0.2029    1.4122    0.0893 C.3       1 <0>        -0.1470
      2 C2         -0.1182   -0.1152    0.0609 C.3       1 <0>        -0.0639
      3 C3         -1.5284   -0.7048    0.1234 C.3       1 <0>        -0.1153
      4 C4         -2.2553   -0.0869    1.3215 C.3       1 <0>        -0.1372
      5 C5         -1.3802   -0.1253    2.5403 C.2       1 <0>         0.5165
      6 O1         -1.9021    0.0340    3.6234 O.2       1 <0>        -0.5557
      7 N1         -0.0599   -0.3253    2.5015 N.am      1 <0>        -0.6006
      8 C6          0.6710   -0.6040    1.2760 C.3       1 <0>         0.1521
      9 H1          0.8139   -1.6812    1.1905 H         1 <0>         0.0727
     10 C7          2.0481    0.0564    1.2837 C.3       1 <0>        -0.1318
     11 C8          2.7791   -0.3080   -0.0131 C.3       1 <0>        -0.1109
     12 C9          1.9074   -1.2503   -0.8452 C.3       1 <0>        -0.0821
     13 C10         0.5945   -0.5615   -1.2147 C.3       1 <0>        -0.0654
     14 C11        -0.2884   -1.5633   -1.9676 C.3       1 <0>        -0.1171
     15 C12         0.4169   -1.9437   -3.2692 C.3       1 <0>        -0.1042
     16 C13         1.7734   -2.5545   -3.0025 C.3       1 <0>        -0.0663
     17 C14         2.6679   -1.6723   -2.1046 C.3       1 <0>        -0.0713
     18 C15         3.7531   -2.6913   -1.6469 C.3       1 <0>        -0.1259
     19 C16         2.9592   -3.9941   -1.4070 C.3       1 <0>        -0.1389
     20 C17         1.6824   -3.9011   -2.2727 C.3       1 <0>         0.1480
     21 H2          0.7942   -3.9270   -1.6414 H         1 <0>         0.0942
     22 N2          1.6464   -4.9992   -3.2417 N.am      1 <0>        -0.6109
     23 C18         2.7334   -5.2741   -3.9895 C.2       1 <0>         0.4954
     24 O2          2.6743   -6.1184   -4.8581 O.2       1 <0>        -0.5455
     25 C19         0.4287   -5.7987   -3.3979 C.3       1 <0>         0.1535
     26 C20         0.7358   -7.2633   -3.0793 C.3       1 <0>        -0.1340
     27 C21        -0.5359   -8.0982   -3.2424 C.3       1 <0>        -0.1143
     28 C22        -1.0395   -7.9843   -4.6826 C.3       1 <0>        -0.1213
     29 C23        -1.3467   -6.5197   -5.0012 C.3       1 <0>        -0.1147
     30 C24        -0.0750   -5.6848   -4.8381 C.3       1 <0>        -0.1357
     31 C25         2.4971   -2.7604   -4.3347 C.3       1 <0>        -0.1588
     32 C26         0.6899   -0.2605    3.7584 C.3       1 <0>         0.0685
     33 H3          0.8025    1.8324    0.0629 H         1 <0>         0.0627
     34 H4         -0.7654    1.7610   -0.7767 H         1 <0>         0.0613
     35 H5         -0.7062    1.7313    1.0020 H         1 <0>         0.0550
     36 H6         -2.0664   -0.4685   -0.7946 H         1 <0>         0.0849
     37 H7         -1.4693   -1.7862    0.2473 H         1 <0>         0.0724
     38 H8         -2.5109    0.9479    1.0936 H         1 <0>         0.1013
     39 H9         -3.1699   -0.6469    1.5164 H         1 <0>         0.0993
     40 H10         1.9339    1.1385    1.3468 H         1 <0>         0.0734
     41 H11         2.6206   -0.3028    2.1389 H         1 <0>         0.0700
     42 H12         2.9804    0.5988   -0.5834 H         1 <0>         0.0668
     43 H13         3.7206   -0.8018    0.2274 H         1 <0>         0.0698
     44 H14         1.6787   -2.1372   -0.2543 H         1 <0>         0.0766
     45 H15         0.8012    0.3056   -1.8420 H         1 <0>         0.0813
     46 H16        -0.4367   -2.4537   -1.3566 H         1 <0>         0.0647
     47 H17        -1.2524   -1.1068   -2.1922 H         1 <0>         0.0725
     48 H18        -0.1977   -2.6627   -3.8109 H         1 <0>         0.0628
     49 H19         0.5420   -1.0505   -3.8813 H         1 <0>         0.0655
     50 H20         3.0832   -0.8186   -2.6402 H         1 <0>         0.0885
     51 H21         4.4973   -2.8355   -2.4302 H         1 <0>         0.0678
     52 H22         4.2273   -2.3568   -0.7242 H         1 <0>         0.0745
     53 H23         3.5540   -4.8556   -1.7103 H         1 <0>         0.0710
     54 H24         2.6881   -4.0783   -0.3546 H         1 <0>         0.0743
     55 H25         3.6572   -4.7424   -3.8152 H         1 <0>         0.1213
     56 H26        -0.3373   -5.4312   -2.7150 H         1 <0>         0.0792
     57 H27         1.5018   -7.6308   -3.7622 H         1 <0>         0.0819
     58 H28         1.0946   -7.3444   -2.0532 H         1 <0>         0.0584
     59 H29        -0.3171   -9.1416   -3.0154 H         1 <0>         0.0634
     60 H30        -1.3019   -7.7307   -2.5595 H         1 <0>         0.0596
     61 H31        -0.2736   -8.3518   -5.3655 H         1 <0>         0.0641
     62 H32        -1.9455   -8.5791   -4.7988 H         1 <0>         0.0609
     63 H33        -1.7055   -6.4386   -6.0272 H         1 <0>         0.0630
     64 H34        -2.1126   -6.1522   -4.3183 H         1 <0>         0.0587
     65 H35        -0.2938   -4.6414   -5.0650 H         1 <0>         0.0578
     66 H36         0.6910   -6.0523   -5.5210 H         1 <0>         0.0887
     67 H37         2.5458   -1.8133   -4.8720 H         1 <0>         0.0600
     68 H38         3.5074   -3.1239   -4.1469 H         1 <0>         0.0608
     69 H39         1.9538   -3.4907   -4.9343 H         1 <0>         0.0636
     70 H40         0.0056   -0.0452    4.5790 H         1 <0>         0.0902
     71 H41         1.1825   -1.2163    3.9373 H         1 <0>         0.0589
     72 H42         1.4396    0.5281    3.6940 H         1 <0>         0.0611
@<TRIPOS>BOND
     1    1    2 1
     2    1   33 1
     3    1   34 1
     4    1   35 1
     5    2    8 1
     6    2   13 1
     7    2    3 1
     8    3    4 1
     9    3   36 1
    10    3   37 1
    11    4    5 1
    12    4   38 1
    13    4   39 1
    14    5    6 2
    15    5    7 am
    16    7    8 1
    17    7   32 1
    18    8    9 1
    19    8   10 1
    20   10   11 1
    21   10   40 1
    22   10   41 1
    23   11   12 1
    24   11   42 1
    25   11   43 1
    26   12   17 1
    27   12   13 1
    28   12   44 1
    29   13   14 1
    30   13   45 1
    31   14   15 1
    32   14   46 1
    33   14   47 1
    34   15   16 1
    35   15   48 1
    36   15   49 1
    37   16   20 1
    38   16   17 1
    39   16   31 1
    40   17   18 1
    41   17   50 1
    42   18   19 1
    43   18   51 1
    44   18   52 1
    45   19   20 1
    46   19   53 1
    47   19   54 1
    48   20   21 1
    49   20   22 1
    50   22   23 am
    51   22   25 1
    52   23   24 2
    53   23   55 1
    54   25   30 1
    55   25   26 1
    56   25   56 1
    57   26   27 1
    58   26   57 1
    59   26   58 1
    60   27   28 1
    61   27   59 1
    62   27   60 1
    63   28   29 1
    64   28   61 1
    65   28   62 1
    66   29   30 1
    67   29   63 1
    68   29   64 1
    69   30   65 1
    70   30   66 1
    71   31   67 1
    72   31   68 1
    73   31   69 1
    74   32   70 1
    75   32   71 1
    76   32   72 1
@<TRIPOS>MOLECULE
CHEMBL16927__7
   72    76     0     0     0
SMALL
USER_CHARGES

@<TRIPOS>ATOM
      1 C1         -0.5703    1.4764    0.0299 C.3       1 <0>        -0.1454
      2 C2         -0.3857   -0.0443    0.1001 C.3       1 <0>        -0.0654
      3 C3         -1.7555   -0.7226    0.1255 C.3       1 <0>        -0.1147
      4 C4         -2.5922   -0.1174    1.2572 C.3       1 <0>        -0.1359
      5 C5         -1.7708    0.0368    2.5038 C.2       1 <0>         0.5155
      6 O1         -2.3513    0.2801    3.5413 O.2       1 <0>        -0.5566
      7 N1         -0.4384   -0.0726    2.5428 N.am      1 <0>        -0.6019
      8 C6          0.3627   -0.4181    1.3774 C.3       1 <0>         0.1571
      9 H1          0.4700   -1.5111    1.3975 H         1 <0>         0.0676
     10 C7          1.7545    0.1929    1.4133 C.3       1 <0>        -0.1269
     11 C8          2.5375   -0.2042    0.1505 C.3       1 <0>        -0.1051
     12 C9          1.6906   -1.1826   -0.6586 C.3       1 <0>        -0.0715
     13 C10         0.4224   -0.4750   -1.1272 C.3       1 <0>        -0.0672
     14 C11        -0.3965   -1.3276   -2.0762 C.3       1 <0>        -0.1077
     15 C12         0.4123   -1.8645   -3.2648 C.3       1 <0>        -0.0987
     16 C13         1.8618   -1.4677   -3.1700 C.3       1 <0>        -0.0670
     17 C14         2.4207   -1.8428   -1.7808 C.3       1 <0>        -0.0728
     18 C15         3.9169   -1.5566   -1.9579 C.3       1 <0>        -0.1141
     19 C16         4.1995   -2.0897   -3.3926 C.3       1 <0>        -0.1402
     20 C17         2.8176   -2.2907   -4.0644 C.3       1 <0>         0.1415
     21 H2          2.5263   -3.3334   -4.0521 H         1 <0>         0.0949
     22 N2          2.8177   -1.7454   -5.4189 N.am      1 <0>        -0.6089
     23 C18         3.3595   -0.5347   -5.6579 C.2       1 <0>         0.4915
     24 O2          3.2803   -0.0425   -6.7635 O.2       1 <0>        -0.5467
     25 C19         2.2289   -2.5143   -6.5181 C.3       1 <0>         0.1532
     26 C20         3.2979   -2.7904   -7.5773 C.3       1 <0>        -0.1342
     27 C21         2.6829   -3.5934   -8.7253 C.3       1 <0>        -0.1142
     28 C22         1.5389   -2.7936   -9.3517 C.3       1 <0>        -0.1213
     29 C23         0.4699   -2.5175   -8.2924 C.3       1 <0>        -0.1149
     30 C24         1.0848   -1.7145   -7.1445 C.3       1 <0>        -0.1351
     31 C25         2.0798   -0.0035   -3.5376 C.3       1 <0>        -0.1594
     32 C26         0.2255    0.1588    3.8273 C.3       1 <0>         0.0687
     33 H3          0.4059    1.9613    0.0298 H         1 <0>         0.0608
     34 H4         -1.1050    1.7358   -0.8839 H         1 <0>         0.0612
     35 H5         -1.1432    1.8131    0.8940 H         1 <0>         0.0545
     36 H6         -2.2664   -0.5543   -0.8246 H         1 <0>         0.0831
     37 H7         -1.6356   -1.7926    0.2915 H         1 <0>         0.0724
     38 H8         -2.9973    0.8448    0.9558 H         1 <0>         0.1021
     39 H9         -3.4292   -0.7908    1.4718 H         1 <0>         0.0977
     40 H10         1.7015    1.2770    1.4856 H         1 <0>         0.0723
     41 H11         2.3064   -0.1906    2.2800 H         1 <0>         0.0686
     42 H12         2.7400    0.6855   -0.4445 H         1 <0>         0.0673
     43 H13         3.4752   -0.6771    0.4379 H         1 <0>         0.0713
     44 H14         1.3841   -1.9920    0.0358 H         1 <0>         0.0687
     45 H15         0.6895    0.4674   -1.6197 H         1 <0>         0.0841
     46 H16        -0.8233   -2.1779   -1.5272 H         1 <0>         0.0637
     47 H17        -1.2377   -0.7340   -2.4618 H         1 <0>         0.0630
     48 H18         0.3321   -2.9603   -3.2958 H         1 <0>         0.0609
     49 H19        -0.0145   -1.4769   -4.2006 H         1 <0>         0.0614
     50 H20         2.3134   -2.9450   -1.6571 H         1 <0>         0.0702
     51 H21         4.1392   -0.4973   -1.8810 H         1 <0>         0.0744
     52 H22         4.5015   -2.1207   -1.2269 H         1 <0>         0.0682
     53 H23         4.7864   -1.3622   -3.9511 H         1 <0>         0.0710
     54 H24         4.7303   -3.0391   -3.3382 H         1 <0>         0.0737
     55 H25         3.8642   -0.0029   -4.8649 H         1 <0>         0.1243
     56 H26         1.8443   -3.4596   -6.1351 H         1 <0>         0.0793
     57 H27         3.6825   -1.8451   -7.9603 H         1 <0>         0.0821
     58 H28         4.1129   -3.3602   -7.1311 H         1 <0>         0.0583
     59 H29         3.4445   -3.7900   -9.4800 H         1 <0>         0.0633
     60 H30         2.2983   -4.5386   -8.3423 H         1 <0>         0.0595
     61 H31         1.9235   -1.8483   -9.7347 H         1 <0>         0.0641
     62 H32         1.1008   -3.3657  -10.1695 H         1 <0>         0.0608
     63 H33        -0.3452   -1.9477   -8.7387 H         1 <0>         0.0629
     64 H34         0.0853   -3.4628   -7.9095 H         1 <0>         0.0586
     65 H35         0.3233   -1.5179   -6.3898 H         1 <0>         0.0581
     66 H36         1.4694   -0.7693   -7.5274 H         1 <0>         0.0883
     67 H37         1.4607    0.6273   -2.8997 H         1 <0>         0.0705
     68 H38         3.1292    0.2545   -3.3952 H         1 <0>         0.0621
     69 H39         1.8053    0.1540   -4.5807 H         1 <0>         0.0629
     70 H40        -0.5214    0.3963    4.5848 H         1 <0>         0.0916
     71 H41         0.7694   -0.7386    4.1221 H         1 <0>         0.0586
     72 H42         0.9228    0.9911    3.7311 H         1 <0>         0.0600
@<TRIPOS>BOND
     1    1    2 1
     2    1   33 1
     3    1   34 1
     4    1   35 1
     5    2    8 1
     6    2   13 1
     7    2    3 1
     8    3    4 1
     9    3   36 1
    10    3   37 1
    11    4    5 1
    12    4   38 1
    13    4   39 1
    14    5    6 2
    15    5    7 am
    16    7    8 1
    17    7   32 1
    18    8    9 1
    19    8   10 1
    20   10   11 1
    21   10   40 1
    22   10   41 1
    23   11   12 1
    24   11   42 1
    25   11   43 1
    26   12   17 1
    27   12   13 1
    28   12   44 1
    29   13   14 1
    30   13   45 1
    31   14   15 1
    32   14   46 1
    33   14   47 1
    34   15   16 1
    35   15   48 1
    36   15   49 1
    37   16   20 1
    38   16   17 1
    39   16   31 1
    40   17   18 1
    41   17   50 1
    42   18   19 1
    43   18   51 1
    44   18   52 1
    45   19   20 1
    46   19   53 1
    47   19   54 1
    48   20   21 1
    49   20   22 1
    50   22   23 am
    51   22   25 1
    52   23   24 2
    53   23   55 1
    54   25   30 1
    55   25   26 1
    56   25   56 1
    57   26   27 1
    58   26   57 1
    59   26   58 1
    60   27   28 1
    61   27   59 1
    62   27   60 1
    63   28   29 1
    64   28   61 1
    65   28   62 1
    66   29   30 1
    67   29   63 1
    68   29   64 1
    69   30   65 1
    70   30   66 1
    71   31   67 1
    72   31   68 1
    73   31   69 1
    74   32   70 1
    75   32   71 1
    76   32   72 1
@<TRIPOS>MOLECULE
CHEMBL103
   51    54     0     0     0
SMALL
USER_CHARGES

@<TRIPOS>ATOM
      1 C1         -1.2451    0.7480    0.4418 C.3       1 <0>        -0.2079
      2 C2         -0.0130   -0.0024    0.0062 C.2       1 <0>         0.3652
      3 O1          0.9705   -0.0070    0.7070 O.2       1 <0>        -0.4548
      4 C3         -0.0081   -0.7470   -1.3040 C.3       1 <0>        -0.1325
      5 H1         -0.6004   -0.2102   -2.0450 H         1 <0>         0.0978
      6 C4          1.4441   -0.9331   -1.8102 C.3       1 <0>        -0.1188
      7 C5          1.6574   -2.4625   -1.9764 C.3       1 <0>        -0.1150
      8 C6          0.2304   -2.9896   -2.1637 C.3       1 <0>        -0.0798
      9 H2         -0.1277   -2.7656   -3.1686 H         1 <0>         0.0787
     10 C7         -0.5545   -2.1580   -1.1120 C.3       1 <0>        -0.0490
     11 C8         -2.0316   -2.3550   -1.3940 C.3       1 <0>        -0.1045
     12 C9         -2.3478   -3.8377   -1.1415 C.3       1 <0>        -0.1235
     13 C10        -1.4843   -4.7528   -2.0045 C.3       1 <0>        -0.0601
     14 H3         -1.7432   -4.6061   -3.0531 H         1 <0>         0.0745
     15 C11         0.0221   -4.4589   -1.8452 C.3       1 <0>        -0.0789
     16 H4          0.3211   -4.6582   -0.8161 H         1 <0>         0.0881
     17 C12         0.8336   -5.3210   -2.8143 C.3       1 <0>        -0.1115
     18 C13         0.6511   -6.8015   -2.4654 C.3       1 <0>        -0.0957
     19 C14        -0.8350   -7.1068   -2.4640 C.2       1 <0>        -0.0284
     20 C15        -1.2808   -8.1344   -3.1732 C.2       1 <0>        -0.2297
     21 C16        -2.7173   -8.4490   -3.2129 C.2       1 <0>         0.4070
     22 O2         -3.1261   -9.4144   -3.8306 O.2       1 <0>        -0.4592
     23 C17        -3.6494   -7.5692   -2.4875 C.2       1 <0>        -0.2152
     24 C18        -3.1814   -6.5528   -1.7801 C.2       1 <0>        -0.0691
     25 C19        -1.7496   -6.2111   -1.6194 C.3       1 <0>        -0.0096
     26 C20        -1.3852   -6.3767   -0.1426 C.3       1 <0>        -0.1439
     27 C21        -0.2211   -2.6561    0.2957 C.3       1 <0>        -0.1576
     28 H5         -1.1980    1.7713    0.0694 H         1 <0>         0.0957
     29 H6         -2.1311    0.2558    0.0407 H         1 <0>         0.0848
     30 H7         -1.2975    0.7596    1.5305 H         1 <0>         0.0840
     31 H8          1.5734   -0.4309   -2.7690 H         1 <0>         0.0678
     32 H9          2.1487   -0.5342   -1.0805 H         1 <0>         0.0793
     33 H10         2.2652   -2.6738   -2.8562 H         1 <0>         0.0683
     34 H11         2.1113   -2.8881   -1.0814 H         1 <0>         0.0703
     35 H12        -2.6237   -1.7300   -0.7256 H         1 <0>         0.0680
     36 H13        -2.2487   -2.1005   -2.4314 H         1 <0>         0.0694
     37 H14        -2.1679   -4.0658   -0.0909 H         1 <0>         0.0760
     38 H15        -3.3979   -4.0211   -1.3691 H         1 <0>         0.0674
     39 H16         0.4893   -5.1434   -3.8331 H         1 <0>         0.0670
     40 H17         1.8885   -5.0577   -2.7377 H         1 <0>         0.0747
     41 H18         1.1530   -7.4195   -3.2098 H         1 <0>         0.0801
     42 H19         1.0686   -7.0011   -1.4785 H         1 <0>         0.0852
     43 H20        -0.5834   -8.7455   -3.7269 H         1 <0>         0.1363
     44 H21        -4.7127   -7.7527   -2.5328 H         1 <0>         0.1390
     45 H22        -3.8925   -5.9231   -1.2661 H         1 <0>         0.1246
     46 H23        -1.9994   -5.7079    0.4604 H         1 <0>         0.0732
     47 H24        -1.5638   -7.4078    0.1623 H         1 <0>         0.0615
     48 H25        -0.3327   -6.1323    0.0015 H         1 <0>         0.0724
     49 H26        -0.7596   -2.0571    1.0300 H         1 <0>         0.0521
     50 H27        -0.5173   -3.7007    0.3912 H         1 <0>         0.0708
     51 H28         0.8513   -2.5653    0.4688 H         1 <0>         0.0653
@<TRIPOS>BOND
     1    1    2 1
     2    1   28 1
     3    1   29 1
     4    1   30 1
     5    2    3 2
     6    2    4 1
     7    4    5 1
     8    4   10 1
     9    4    6 1
    10    6    7 1
    11    6   31 1
    12    6   32 1
    13    7    8 1
    14    7   33 1
    15    7   34 1
    16    8    9 1
    17    8   15 1
    18    8   10 1
    19   10   11 1
    20   10   27 1
    21   11   12 1
    22   11   35 1
    23   11   36 1
    24   12   13 1
    25   12   37 1
    26   12   38 1
    27   13   14 1
    28   13   25 1
    29   13   15 1
    30   15   16 1
    31   15   17 1
    32   17   18 1
    33   17   39 1
    34   17   40 1
    35   18   19 1
    36   18   41 1
    37   18   42 1
    38   19   25 1
    39   19   20 2
    40   20   21 1
    41   20   43 1
    42   21   22 2
    43   21   23 1
    44   23   24 2
    45   23   44 1
    46   24   25 1
    47   24   45 1
    48   25   26 1
    49   26   46 1
    50   26   47 1
    51   26   48 1
    52   27   49 1
    53   27   50 1
    54   27   51 1
@<TRIPOS>MOLECULE
CHEMBL227784
   38    41     0     0     0
SMALL
USER_CHARGES

@<TRIPOS>ATOM
      1 C1         -0.0166    1.3735    0.0096 C.ar      1 <0>        -0.1052
      2 C2          1.1921    2.0818    0.0019 C.ar      1 <0>        -0.0998
      3 C3          1.2095    3.5437    0.0073 C.2       1 <0>        -0.0804
      4 C4          2.4094    4.1786   -0.0002 C.2       1 <0>        -0.1405
      5 C5          3.6061    3.4343   -0.0129 C.2       1 <0>         0.5376
      6 O1          4.6729    4.0246   -0.0193 O.2       1 <0>        -0.5237
      7 N1          3.6014    2.0900   -0.0176 N.am      1 <0>        -0.6185
      8 H1          4.4439    1.6092   -0.0252 H         1 <0>         0.4212
      9 C6          2.4152    1.3836   -0.0118 C.ar      1 <0>         0.1832
     10 C7          2.4148   -0.0056   -0.0204 C.ar      1 <0>        -0.1568
     11 C8          1.2175   -0.6997   -0.0152 C.ar      1 <0>         0.1344
     12 C9          0.0021   -0.0041    0.0020 C.ar      1 <0>         0.1302
     13 N2         -1.2083   -0.7186    0.0151 N.pl3     1 <0>        -0.6317
     14 C10        -1.1577   -2.1560   -0.3021 C.3       1 <0>         0.0879
     15 C11         0.0651   -2.7461    0.4146 C.3       1 <0>         0.0442
     16 O2          1.2367   -2.0583   -0.0295 O.3       1 <0>        -0.3046
     17 C12        -2.4759   -0.0568    0.3335 C.3       1 <0>         0.1620
     18 C13        -3.1106    0.4755   -0.9528 C.3       1 <0>        -0.1787
     19 C14        -3.2812    1.9905   -1.0819 C.3       1 <0>        -0.1770
     20 C15        -4.5033    1.1003   -0.8474 C.3       1 <0>        -0.1728
     21 C16        -0.0768    4.3288    0.0203 C.3       1 <0>         0.5081
     22 F1          0.2124    5.6976    0.0232 F         1 <0>        -0.1679
     23 F2         -0.8273    4.0132   -1.1174 F         1 <0>        -0.1648
     24 F3         -0.8095    4.0045    1.1671 F         1 <0>        -0.1685
     25 H2         -0.9572    1.9040    0.0259 H         1 <0>         0.1422
     26 H3          2.4471    5.2580    0.0033 H         1 <0>         0.1713
     27 H4          3.3505   -0.5448   -0.0314 H         1 <0>         0.1494
     28 H5         -2.0653   -2.6451    0.0515 H         1 <0>         0.0992
     29 H6         -1.0576   -2.2939   -1.3787 H         1 <0>         0.0748
     30 H7         -0.0467   -2.6200    1.4915 H         1 <0>         0.0732
     31 H8          0.1518   -3.8062    0.1762 H         1 <0>         0.1224
     32 H9         -3.1514   -0.7721    0.8029 H         1 <0>         0.0839
     33 H10        -2.2915    0.7715    1.0176 H         1 <0>         0.0769
     34 H11        -2.8772   -0.0839   -1.8587 H         1 <0>         0.1073
     35 H12        -2.9414    2.6079   -0.2503 H         1 <0>         0.0925
     36 H13        -3.1600    2.4280   -2.0728 H         1 <0>         0.0964
     37 H14        -5.1860    0.9521   -1.6841 H         1 <0>         0.0965
     38 H15        -4.9674    1.1319    0.1383 H         1 <0>         0.0962
@<TRIPOS>BOND
     1    1   12 ar
     2    1    2 ar
     3    1   25 1
     4    2    9 ar
     5    2    3 1
     6    3    4 2
     7    3   21 1
     8    4    5 1
     9    4   26 1
    10    5    6 2
    11    5    7 am
    12    7    8 1
    13    7    9 1
    14    9   10 ar
    15   10   11 ar
    16   10   27 1
    17   11   16 1
    18   11   12 ar
    19   12   13 1
    20   13   14 1
    21   13   17 1
    22   14   15 1
    23   14   28 1
    24   14   29 1
    25   15   16 1
    26   15   30 1
    27   15   31 1
    28   17   18 1
    29   17   32 1
    30   17   33 1
    31   18   20 1
    32   18   19 1
    33   18   34 1
    34   19   20 1
    35   19   35 1
    36   19   36 1
    37   20   37 1
    38   20   38 1
    39   21   22 1
    40   21   23 1
    41   21   24 1
@<TRIPOS>MOLECULE
CHEMBL556848
   61    65     0     0     0
SMALL
USER_CHARGES

@<TRIPOS>ATOM
      1 C1          0.0285    1.4845   -0.1500 C.3       1 <0>        -0.1282
      2 C2          0.0276   -0.0453   -0.1254 C.3       1 <0>        -0.0387
      3 C3          0.5631   -0.6463   -1.4270 C.3       1 <0>        -0.1103
      4 C4          2.0741   -0.4535   -1.5266 C.3       1 <0>        -0.1141
      5 C5          2.7422   -1.2023   -0.3685 C.3       1 <0>        -0.0630
      6 H1          2.4539   -2.2531   -0.3974 H         1 <0>         0.0731
      7 C6          2.2787   -0.5795    0.9466 C.3       1 <0>        -0.0711
      8 H2          2.5872    0.4657    0.9672 H         1 <0>         0.0768
      9 C7          0.7881   -0.6132    1.0866 C.3       1 <0>        -0.0716
     10 H3          0.5086   -0.0439    1.9731 H         1 <0>         0.0787
     11 C8          0.2517   -2.0417    1.2438 C.3       1 <0>        -0.0966
     12 C9         -1.1309   -2.0448    0.6170 C.2       1 <0>        -0.1261
     13 C10        -1.9546   -3.0804    0.5333 C.2       1 <0>        -0.1114
     14 C11        -1.5045   -4.4195    0.9671 C.ar      1 <0>        -0.0069
     15 C12        -2.2934   -5.5528    0.7378 C.ar      1 <0>        -0.1672
     16 C13        -1.8343   -6.7834    1.1590 C.ar      1 <0>         0.0996
     17 N1         -0.6705   -6.8997    1.7696 N.ar      1 <0>        -0.4876
     18 C14         0.1038   -5.8578    2.0055 C.ar      1 <0>         0.1045
     19 C15        -0.2749   -4.5907    1.6135 C.ar      1 <0>        -0.2021
     20 C16        -1.3944   -0.6385    0.1033 C.3       1 <0>         0.1369
     21 H4         -1.9493   -0.6723   -0.8342 H         1 <0>         0.0647
     22 O1         -2.1046    0.1261    1.0796 O.3       1 <0>        -0.5488
     23 C17         2.9441   -1.3121    2.1154 C.3       1 <0>        -0.1227
     24 C18         4.4624   -1.1675    2.0015 C.3       1 <0>        -0.1268
     25 C19         4.9439   -1.7622    0.6822 C.3       1 <0>         0.1580
     26 H5          6.0207   -1.6133    0.6023 H         1 <0>         0.0728
     27 C20         4.2631   -1.0824   -0.5054 C.3       1 <0>        -0.0463
     28 C21         4.6869   -1.7662   -1.7848 C.2       1 <0>        -0.0837
     29 C22         4.8498   -3.0892   -1.7891 C.2       1 <0>        -0.1963
     30 C23         4.6008   -3.8470   -0.5492 C.2       1 <0>         0.5467
     31 O2          4.3358   -5.0330   -0.5959 O.2       1 <0>        -0.5331
     32 N2          4.6619   -3.1960    0.6314 N.am      1 <0>        -0.6079
     33 C24         4.4468   -3.9482    1.8700 C.3       1 <0>         0.0777
     34 C25         4.6621    0.3943   -0.5377 C.3       1 <0>        -0.1438
     35 H6          1.0556    1.8465   -0.1974 H         1 <0>         0.0574
     36 H7         -0.5207    1.8342   -1.0241 H         1 <0>         0.0549
     37 H8         -0.4486    1.8627    0.7541 H         1 <0>         0.0674
     38 H9          0.3344   -1.7118   -1.4516 H         1 <0>         0.0641
     39 H10         0.0818   -0.1566   -2.2736 H         1 <0>         0.0656
     40 H11         2.4320   -0.8533   -2.4754 H         1 <0>         0.0662
     41 H12         2.3123    0.6082   -1.4614 H         1 <0>         0.0728
     42 H13         0.9010   -2.7454    0.7229 H         1 <0>         0.0867
     43 H14         0.1852   -2.3031    2.2999 H         1 <0>         0.0853
     44 H15        -2.9545   -2.9453    0.1481 H         1 <0>         0.1272
     45 H16        -3.2472   -5.4649    0.2389 H         1 <0>         0.1348
     46 H17        -2.4359   -7.6636    0.9870 H         1 <0>         0.1558
     47 H18         1.0487   -5.9995    2.5088 H         1 <0>         0.1535
     48 H19         0.3659   -3.7429    1.8060 H         1 <0>         0.1625
     49 H20        -2.9969   -0.1994    1.2610 H         1 <0>         0.3783
     50 H21         2.6067   -0.8781    3.0566 H         1 <0>         0.0692
     51 H22         2.6756   -2.3680    2.0835 H         1 <0>         0.0710
     52 H23         4.7294   -0.1115    2.0414 H         1 <0>         0.0845
     53 H24         4.9390   -1.6914    2.8300 H         1 <0>         0.0764
     54 H25         4.8551   -1.1909   -2.6832 H         1 <0>         0.1321
     55 H26         5.1598   -3.5993   -2.6891 H         1 <0>         0.1433
     56 H27         3.3868   -3.9349    2.1237 H         1 <0>         0.0566
     57 H28         4.7742   -4.9785    1.7309 H         1 <0>         0.0767
     58 H29         5.0193   -3.4908    2.6770 H         1 <0>         0.0728
     59 H30         4.3429    0.8772    0.3859 H         1 <0>         0.0692
     60 H31         5.7446    0.4760   -0.6351 H         1 <0>         0.0613
     61 H32         4.1830    0.8816   -1.3869 H         1 <0>         0.0690
@<TRIPOS>BOND
     1    1    2 1
     2    1   35 1
     3    1   36 1
     4    1   37 1
     5    2    9 1
     6    2   20 1
     7    2    3 1
     8    3    4 1
     9    3   38 1
    10    3   39 1
    11    4    5 1
    12    4   40 1
    13    4   41 1
    14    5    6 1
    15    5   27 1
    16    5    7 1
    17    7    8 1
    18    7    9 1
    19    7   23 1
    20    9   10 1
    21    9   11 1
    22   11   12 1
    23   11   42 1
    24   11   43 1
    25   12   13 2
    26   12   20 1
    27   13   14 1
    28   13   44 1
    29   14   19 ar
    30   14   15 ar
    31   15   16 ar
    32   15   45 1
    33   16   17 ar
    34   16   46 1
    35   17   18 ar
    36   18   19 ar
    37   18   47 1
    38   19   48 1
    39   20   21 1
    40   20   22 1
    41   22   49 1
    42   23   24 1
    43   23   50 1
    44   23   51 1
    45   24   25 1
    46   24   52 1
    47   24   53 1
    48   25   26 1
    49   25   32 1
    50   25   27 1
    51   27   28 1
    52   27   34 1
    53   28   29 2
    54   28   54 1
    55   29   30 1
    56   29   55 1
    57   30   31 2
    58   30   32 am
    59   32   33 1
    60   33   56 1
    61   33   57 1
    62   33   58 1
    63   34   59 1
    64   34   60 1
    65   34   61 1
@<TRIPOS>MOLECULE
CHEMBL556848__1
   62    66     0     0     0
SMALL
USER_CHARGES

@<TRIPOS>ATOM
      1 C1          0.0285    1.4845   -0.1500 C.3       1 <0>        -0.1319
      2 C2          0.0276   -0.0453   -0.1254 C.3       1 <0>        -0.0392
      3 C3          0.5631   -0.6463   -1.4270 C.3       1 <0>        -0.1108
      4 C4          2.0741   -0.4535   -1.5266 C.3       1 <0>        -0.1182
      5 C5          2.7422   -1.2023   -0.3685 C.3       1 <0>        -0.0609
      6 H1          2.4539   -2.2531   -0.3974 H         1 <0>         0.0686
      7 C6          2.2787   -0.5795    0.9466 C.3       1 <0>        -0.0772
      8 H2          2.5872    0.4657    0.9672 H         1 <0>         0.0849
      9 C7          0.7881   -0.6132    1.0866 C.3       1 <0>        -0.0698
     10 H3          0.5086   -0.0439    1.9731 H         1 <0>         0.0871
     11 C8          0.2517   -2.0417    1.2438 C.3       1 <0>        -0.1212
     12 C9         -1.1309   -2.0448    0.6170 C.2       1 <0>        -0.0525
     13 C10        -1.9546   -3.0804    0.5333 C.2       1 <0>        -0.1650
     14 C11        -1.5045   -4.4195    0.9671 C.ar      1 <0>         0.0930
     15 C12        -2.2934   -5.5528    0.7378 C.ar      1 <0>        -0.1312
     16 C13        -1.8343   -6.7834    1.1590 C.ar      1 <0>         0.1340
     17 N1         -0.6705   -6.8997    1.7696 N.ar      1 <0>        -0.4569
     18 C14         0.1036   -5.8577    2.0058 C.ar      1 <0>         0.1429
     19 C15        -0.2749   -4.5907    1.6135 C.ar      1 <0>        -0.1817
     20 C16        -1.3944   -0.6385    0.1033 C.3       1 <0>         0.1271
     21 H4         -1.9493   -0.6723   -0.8342 H         1 <0>         0.0781
     22 O1         -2.1046    0.1261    1.0796 O.3       1 <0>        -0.5381
     23 C17         2.9441   -1.3121    2.1154 C.3       1 <0>        -0.1198
     24 C18         4.4624   -1.1675    2.0015 C.3       1 <0>        -0.1288
     25 C19         4.9439   -1.7622    0.6822 C.3       1 <0>         0.1555
     26 H5          6.0207   -1.6133    0.6023 H         1 <0>         0.0771
     27 C20         4.2631   -1.0824   -0.5054 C.3       1 <0>        -0.0461
     28 C21         4.6869   -1.7662   -1.7848 C.2       1 <0>        -0.0793
     29 C22         4.8498   -3.0892   -1.7891 C.2       1 <0>        -0.2012
     30 C23         4.6008   -3.8470   -0.5492 C.2       1 <0>         0.5512
     31 O2          4.3358   -5.0330   -0.5959 O.2       1 <0>        -0.5419
     32 N2          4.6619   -3.1960    0.6314 N.am      1 <0>        -0.6082
     33 C24         4.4468   -3.9482    1.8700 C.3       1 <0>         0.0784
     34 C25         4.6621    0.3943   -0.5377 C.3       1 <0>        -0.1471
     35 H6          1.0556    1.8465   -0.1974 H         1 <0>         0.0624
     36 H7         -0.5207    1.8342   -1.0241 H         1 <0>         0.0602
     37 H8         -0.4486    1.8627    0.7541 H         1 <0>         0.0709
     38 H9          0.3344   -1.7118   -1.4516 H         1 <0>         0.0586
     39 H10         0.0818   -0.1566   -2.2736 H         1 <0>         0.0720
     40 H11         2.4320   -0.8533   -2.4754 H         1 <0>         0.0704
     41 H12         2.3123    0.6082   -1.4614 H         1 <0>         0.0780
     42 H13         0.9010   -2.7454    0.7229 H         1 <0>         0.0964
     43 H14         0.1852   -2.3031    2.2999 H         1 <0>         0.0984
     44 H15        -2.9545   -2.9453    0.1481 H         1 <0>         0.1510
     45 H16        -3.2472   -5.4649    0.2389 H         1 <0>         0.1846
     46 H17        -2.4359   -7.6636    0.9870 H         1 <0>         0.2093
     47 H18         1.0484   -5.9994    2.5095 H         1 <0>         0.2068
     48 H19         0.3659   -3.7429    1.8060 H         1 <0>         0.2040
     49 H20        -2.9969   -0.1994    1.2610 H         1 <0>         0.3825
     50 H21         2.6067   -0.8781    3.0566 H         1 <0>         0.0720
     51 H22         2.6756   -2.3680    2.0835 H         1 <0>         0.0645
     52 H23         4.7294   -0.1115    2.0414 H         1 <0>         0.0890
     53 H24         4.9390   -1.6914    2.8300 H         1 <0>         0.0786
     54 H25         4.8551   -1.1909   -2.6832 H         1 <0>         0.1352
     55 H26         5.1598   -3.5993   -2.6891 H         1 <0>         0.1455
     56 H27         3.3868   -3.9349    2.1237 H         1 <0>         0.0492
     57 H28         4.7742   -4.9785    1.7309 H         1 <0>         0.0761
     58 H29         5.0193   -3.4908    2.6770 H         1 <0>         0.0765
     59 H30         4.3429    0.8772    0.3859 H         1 <0>         0.0703
     60 H31         5.7446    0.4760   -0.6351 H         1 <0>         0.0649
     61 H32         4.1830    0.8816   -1.3869 H         1 <0>         0.0713
     62 H33        -0.3750   -7.7787    2.0541 H         1 <0>         0.4505
@<TRIPOS>BOND
     1    1    2 1
     2    1   35 1
     3    1   36 1
     4    1   37 1
     5    2    9 1
     6    2   20 1
     7    2    3 1
     8    3    4 1
     9    3   38 1
    10    3   39 1
    11    4    5 1
    12    4   40 1
    13    4   41 1
    14    5    6 1
    15    5   27 1
    16    5    7 1
    17    7    8 1
    18    7    9 1
    19    7   23 1
    20    9   10 1
    21    9   11 1
    22   11   12 1
    23   11   42 1
    24   11   43 1
    25   12   13 2
    26   12   20 1
    27   13   14 1
    28   13   44 1
    29   14   19 ar
    30   14   15 ar
    31   15   16 ar
    32   15   45 1
    33   16   17 ar
    34   16   46 1
    35   17   18 ar
    36   17   62 1
    37   18   19 ar
    38   18   47 1
    39   19   48 1
    40   20   21 1
    41   20   22 1
    42   22   49 1
    43   23   24 1
    44   23   50 1
    45   23   51 1
    46   24   25 1
    47   24   52 1
    48   24   53 1
    49   25   26 1
    50   25   32 1
    51   25   27 1
    52   27   28 1
    53   27   34 1
    54   28   29 2
    55   28   54 1
    56   29   30 1
    57   29   55 1
    58   30   31 2
    59   30   32 am
    60   32   33 1
    61   33   56 1
    62   33   57 1
    63   33   58 1
    64   34   59 1
    65   34   60 1
    66   34   61 1
@<TRIPOS>MOLECULE
CHEMBL247637
   48    52     0     0     0
SMALL
USER_CHARGES

@<TRIPOS>ATOM
      1 C1         -0.0167    1.3781    0.0096 C.ar      1 <0>        -0.1142
      2 C2          1.1709    2.0855    0.0021 C.ar      1 <0>        -0.1210
      3 C3          2.3773    1.4107   -0.0130 C.ar      1 <0>        -0.1088
      4 C4          2.3960    0.0285   -0.0201 C.ar      1 <0>        -0.1022
      5 C5          1.2084   -0.6789   -0.0117 C.ar      1 <0>        -0.0915
      6 C6          0.0021   -0.0041    0.0020 C.ar      1 <0>        -0.1197
      7 C7          3.7112   -0.7071   -0.0376 C.3       1 <0>         0.1613
      8 C8          4.0056   -1.2150   -1.4564 C.3       1 <0>         0.0590
      9 O1          2.9731   -2.1254   -1.8418 O.3       1 <0>        -0.2936
     10 C9          2.6461   -3.1176   -0.9753 C.ar      1 <0>         0.1220
     11 C10         2.9615   -3.0199    0.3721 C.ar      1 <0>         0.1197
     12 C11         2.6174   -4.0391    1.2522 C.ar      1 <0>        -0.0881
     13 C12         1.9597   -5.1657    0.8019 C.ar      1 <0>        -0.1487
     14 C13         1.6347   -5.2899   -0.5428 C.ar      1 <0>         0.1773
     15 C14         1.9778   -4.2607   -1.4414 C.ar      1 <0>        -0.1042
     16 C15         1.6284   -4.4060   -2.8536 C.2       1 <0>        -0.0700
     17 C16         0.9824   -5.5320   -3.2497 C.2       1 <0>        -0.1465
     18 C17         0.6601   -6.5337   -2.3115 C.2       1 <0>         0.5384
     19 O2          0.0798   -7.5369   -2.6894 O.2       1 <0>        -0.5237
     20 N1          0.9777   -6.4113   -1.0109 N.am      1 <0>        -0.6211
     21 H1          0.7415   -7.1202   -0.3923 H         1 <0>         0.4215
     22 C18         1.9775   -3.3286   -3.8478 C.3       1 <0>         0.5152
     23 F1          1.5373   -3.7080   -5.1203 F         1 <0>        -0.1766
     24 F2          1.3549   -2.1320   -3.4765 F         1 <0>        -0.1566
     25 F3          3.3643   -3.1456   -3.8694 F         1 <0>        -0.1630
     26 N2          3.6388   -1.8818    0.8479 N.pl3     1 <0>        -0.6212
     27 C19         4.2508   -1.8659    2.1788 C.3       1 <0>         0.1657
     28 C20         3.2317   -1.3619    3.2027 C.3       1 <0>        -0.1746
     29 C21         2.7938   -2.3334    4.3006 C.3       1 <0>        -0.1797
     30 C22         3.7152   -1.1601    4.6402 C.3       1 <0>        -0.1745
     31 H2         -0.9591    1.9053    0.0259 H         1 <0>         0.1207
     32 H3          1.1563    3.1654    0.0076 H         1 <0>         0.1222
     33 H4          3.3051    1.9634   -0.0196 H         1 <0>         0.1212
     34 H5          1.2231   -1.7588   -0.0176 H         1 <0>         0.1226
     35 H6         -0.9258   -0.5567    0.0082 H         1 <0>         0.1193
     36 H7          4.5106   -0.0437    0.2924 H         1 <0>         0.1118
     37 H8          4.0279   -0.3733   -2.1487 H         1 <0>         0.1214
     38 H9          4.9678   -1.7270   -1.4690 H         1 <0>         0.0785
     39 H10         2.8676   -3.9488    2.2990 H         1 <0>         0.1417
     40 H11         1.6978   -5.9512    1.4952 H         1 <0>         0.1419
     41 H12         0.7139   -5.6610   -4.2878 H         1 <0>         0.1706
     42 H13         4.5659   -2.8746    2.4460 H         1 <0>         0.0783
     43 H14         5.1171   -1.2044    2.1725 H         1 <0>         0.0823
     44 H15         2.4860   -0.6651    2.8200 H         1 <0>         0.1085
     45 H16         1.7597   -2.2759    4.6404 H         1 <0>         0.0938
     46 H17         3.2317   -3.3315    4.2935 H         1 <0>         0.0943
     47 H18         4.7593   -1.3863    4.8565 H         1 <0>         0.0956
     48 H19         3.2872   -0.3307    5.2034 H         1 <0>         0.0946
@<TRIPOS>BOND
     1    1    6 ar
     2    1    2 ar
     3    1   31 1
     4    2    3 ar
     5    2   32 1
     6    3    4 ar
     7    3   33 1
     8    4    5 ar
     9    4    7 1
    10    5    6 ar
    11    5   34 1
    12    6   35 1
    13    7   26 1
    14    7    8 1
    15    7   36 1
    16    8    9 1
    17    8   37 1
    18    8   38 1
    19    9   10 1
    20   10   15 ar
    21   10   11 ar
    22   11   12 ar
    23   11   26 1
    24   12   13 ar
    25   12   39 1
    26   13   14 ar
    27   13   40 1
    28   14   20 1
    29   14   15 ar
    30   15   16 1
    31   16   17 2
    32   16   22 1
    33   17   18 1
    34   17   41 1
    35   18   19 2
    36   18   20 am
    37   20   21 1
    38   22   23 1
    39   22   24 1
    40   22   25 1
    41   26   27 1
    42   27   28 1
    43   27   42 1
    44   27   43 1
    45   28   30 1
    46   28   29 1
    47   28   44 1
    48   29   30 1
    49   29   45 1
    50   29   46 1
    51   30   47 1
    52   30   48 1
@<TRIPOS>MOLECULE
CHEMBL247637__1
   48    52     0     0     0
SMALL
USER_CHARGES

@<TRIPOS>ATOM
      1 C1         -0.0167    1.3781    0.0096 C.ar      1 <0>        -0.1140
      2 C2          1.1709    2.0855    0.0021 C.ar      1 <0>        -0.1209
      3 C3          2.3773    1.4107   -0.0130 C.ar      1 <0>        -0.1090
      4 C4          2.3960    0.0285   -0.0201 C.ar      1 <0>        -0.1041
      5 C5          1.2084   -0.6789   -0.0117 C.ar      1 <0>        -0.0925
      6 C6          0.0021   -0.0041    0.0020 C.ar      1 <0>        -0.1193
      7 C7          3.7112   -0.7071   -0.0376 C.3       1 <0>         0.1635
      8 C8          4.0353   -1.2291    1.3697 C.3       1 <0>         0.0596
      9 O1          3.0109   -2.1434    1.7675 O.3       1 <0>        -0.2934
     10 C9          2.6657   -3.1270    0.8982 C.ar      1 <0>         0.1214
     11 C10         2.9530   -3.0159   -0.4545 C.ar      1 <0>         0.1194
     12 C11         2.5907   -4.0264   -1.3373 C.ar      1 <0>        -0.0897
     13 C12         1.9416   -5.1571   -0.8846 C.ar      1 <0>        -0.1469
     14 C13         1.6439   -5.2943    0.4651 C.ar      1 <0>         0.1765
     15 C14         2.0072   -4.2747    1.3667 C.ar      1 <0>        -0.1033
     16 C15         1.6868   -4.4338    2.7843 C.2       1 <0>        -0.0702
     17 C16         1.0488   -5.5636    3.1826 C.2       1 <0>        -0.1461
     18 C17         0.7071   -6.5560    2.2414 C.2       1 <0>         0.5383
     19 O2          0.1343   -7.5629    2.6213 O.2       1 <0>        -0.5237
     20 N1          0.9951   -6.4196    0.9354 N.am      1 <0>        -0.6210
     21 H1          0.7449   -7.1217    0.3146 H         1 <0>         0.4216
     22 C18         2.0574   -3.3667    3.7818 C.3       1 <0>         0.5151
     23 F1          1.6431   -3.7584    5.0593 F         1 <0>        -0.1766
     24 F2          3.4446   -3.1850    3.7766 F         1 <0>        -0.1631
     25 F3          1.4286   -2.1660    3.4353 F         1 <0>        -0.1565
     26 N2          3.6202   -1.8729   -0.9330 N.pl3     1 <0>        -0.6208
     27 C19         4.2039   -1.8436   -2.2763 C.3       1 <0>         0.1647
     28 C20         5.6508   -2.3371   -2.2145 C.3       1 <0>        -0.1764
     29 C21         6.7525   -1.3443   -2.5909 C.3       1 <0>        -0.1785
     30 C22         6.4012   -2.4928   -3.5387 C.3       1 <0>        -0.1738
     31 H2         -0.9591    1.9053    0.0259 H         1 <0>         0.1213
     32 H3          1.1563    3.1654    0.0076 H         1 <0>         0.1227
     33 H4          3.3051    1.9634   -0.0196 H         1 <0>         0.1214
     34 H5          1.2231   -1.7588   -0.0176 H         1 <0>         0.1226
     35 H6         -0.9258   -0.5567    0.0082 H         1 <0>         0.1200
     36 H7          4.5035   -0.0403   -0.3776 H         1 <0>         0.1116
     37 H8          4.9974   -1.7411    1.3570 H         1 <0>         0.0779
     38 H9          4.0722   -0.3944    2.0696 H         1 <0>         0.1207
     39 H10         2.8190   -3.9256   -2.3881 H         1 <0>         0.1412
     40 H11         1.6646   -5.9354   -1.5803 H         1 <0>         0.1424
     41 H12         0.8023   -5.7031    4.2247 H         1 <0>         0.1707
     42 H13         3.6272   -2.4906   -2.9373 H         1 <0>         0.0819
     43 H14         4.1841   -0.8231   -2.6588 H         1 <0>         0.0792
     44 H15         5.8690   -3.0560   -1.4248 H         1 <0>         0.1063
     45 H16         6.4465   -0.3396   -2.8825 H         1 <0>         0.0945
     46 H17         7.6958   -1.4099   -2.0486 H         1 <0>         0.0935
     47 H18         7.1134   -3.3139   -3.6201 H         1 <0>         0.0957
     48 H19         5.8641   -2.2437   -4.4539 H         1 <0>         0.0960
@<TRIPOS>BOND
     1    1    6 ar
     2    1    2 ar
     3    1   31 1
     4    2    3 ar
     5    2   32 1
     6    3    4 ar
     7    3   33 1
     8    4    5 ar
     9    4    7 1
    10    5    6 ar
    11    5   34 1
    12    6   35 1
    13    7   26 1
    14    7    8 1
    15    7   36 1
    16    8    9 1
    17    8   37 1
    18    8   38 1
    19    9   10 1
    20   10   15 ar
    21   10   11 ar
    22   11   12 ar
    23   11   26 1
    24   12   13 ar
    25   12   39 1
    26   13   14 ar
    27   13   40 1
    28   14   20 1
    29   14   15 ar
    30   15   16 1
    31   16   17 2
    32   16   22 1
    33   17   18 1
    34   17   41 1
    35   18   19 2
    36   18   20 am
    37   20   21 1
    38   22   23 1
    39   22   24 1
    40   22   25 1
    41   26   27 1
    42   27   28 1
    43   27   42 1
    44   27   43 1
    45   28   30 1
    46   28   29 1
    47   28   44 1
    48   29   30 1
    49   29   45 1
    50   29   46 1
    51   30   47 1
    52   30   48 1
@<TRIPOS>MOLECULE
CHEMBL234394
   38    39     0     0     0
SMALL
USER_CHARGES

@<TRIPOS>ATOM
      1 C1          0.3905    0.8326   -6.0336 C.3       1 <0>        -0.1605
      2 C2          1.0763    2.1292   -5.6876 C.ar      1 <0>         0.0359
      3 C3          1.2452    2.4885   -4.3625 C.ar      1 <0>        -0.6580
      4 C4          1.8737    3.6771   -4.0356 C.ar      1 <0>        -0.0098
      5 C5          2.3370    4.5131   -5.0302 C.ar      1 <0>        -0.0855
      6 C6          2.1710    4.1578   -6.3703 C.ar      1 <0>         0.0505
      7 C7          1.5399    2.9533   -6.6939 C.ar      1 <0>        -0.0260
      8 Cl1         1.3333    2.4981   -8.3564 Cl        1 <0>        -0.0310
      9 C8          2.6490    5.0211   -7.4080 C.1       1 <0>         0.2358
     10 N1          3.0282    5.7060   -8.2312 N.1       1 <0>        -0.3682
     11 S1          0.6565    1.4277   -3.0847 S.o2      1 <0>         2.7031
     12 O1          1.0409    0.1076   -3.4434 O.2       1 <0>        -0.9306
     13 O2          1.0390    2.0245   -1.8531 O.2       1 <0>        -0.9295
     14 N2         -0.9982    1.4695   -3.1371 N.pl3     1 <0>        -0.9935
     15 C9         -1.8728    0.3597   -3.5574 C.3       1 <0>         0.1154
     16 C10        -3.1839    1.0418   -4.0213 C.3       1 <0>        -0.1626
     17 C11        -3.3070    2.2056   -3.0026 C.3       1 <0>         0.1105
     18 H1         -3.8779    3.0313   -3.4274 H         1 <0>         0.0961
     19 C12        -1.8385    2.6175   -2.7662 C.3       1 <0>         0.1658
     20 H2         -1.5909    3.4755   -3.3913 H         1 <0>         0.1228
     21 C13        -1.6267    2.9597   -1.3140 C.2       1 <0>         0.4526
     22 O3         -1.3512    2.0895   -0.5222 O.2       1 <0>        -0.4634
     23 O4         -1.7442    4.2311   -0.8999 O.3       1 <0>        -0.3559
     24 C14        -1.4607    4.4943    0.4757 C.3       1 <0>         0.0351
     25 O5         -3.9055    1.7521   -1.7868 O.3       1 <0>        -0.5517
     26 H3          1.1161    0.0197   -6.0079 H         1 <0>         0.1121
     27 H4         -0.4011    0.6361   -5.3104 H         1 <0>         0.0811
     28 H5         -0.0397    0.9044   -7.0325 H         1 <0>         0.0949
     29 H6          2.0017    3.9511   -2.9988 H         1 <0>         0.1632
     30 H7          2.8267    5.4407   -4.7729 H         1 <0>         0.1575
     31 H8         -1.4187   -0.1898   -4.3820 H         1 <0>         0.0964
     32 H9         -2.0688   -0.3076   -2.7181 H         1 <0>         0.0860
     33 H10        -3.0880    1.4215   -5.0386 H         1 <0>         0.0948
     34 H11        -4.0298    0.3593   -3.9389 H         1 <0>         0.1000
     35 H12        -2.0972    3.8708    1.1036 H         1 <0>         0.0619
     36 H13        -0.4144    4.2679    0.6808 H         1 <0>         0.0637
     37 H14        -1.6543    5.5449    0.6920 H         1 <0>         0.1016
     38 H15        -4.8037    1.4103   -1.8942 H         1 <0>         0.3897
@<TRIPOS>BOND
     1    1    2 1
     2    1   26 1
     3    1   27 1
     4    1   28 1
     5    2    7 ar
     6    2    3 ar
     7    3    4 ar
     8    3   11 1
     9    4    5 ar
    10    4   29 1
    11    5    6 ar
    12    5   30 1
    13    6    7 ar
    14    6    9 1
    15    7    8 1
    16    9   10 3
    17   11   12 2
    18   11   13 2
    19   11   14 1
    20   14   19 1
    21   14   15 1
    22   15   16 1
    23   15   31 1
    24   15   32 1
    25   16   17 1
    26   16   33 1
    27   16   34 1
    28   17   18 1
    29   17   19 1
    30   17   25 1
    31   19   20 1
    32   19   21 1
    33   21   22 2
    34   21   23 1
    35   23   24 1
    36   24   35 1
    37   24   36 1
    38   24   37 1
    39   25   38 1
@<TRIPOS>MOLECULE
CHEMBL62700
   41    44     0     0     0
SMALL
USER_CHARGES

@<TRIPOS>ATOM
      1 C1         -0.0184    1.5051    0.0103 C.3       1 <0>        -0.1198
      2 C2          0.0021   -0.0041    0.0020 C.2       1 <0>        -0.0664
      3 C3         -0.0033   -0.5992   -1.1882 C.2       1 <0>        -0.1595
      4 C4         -0.0604   -2.0878   -1.3578 C.3       1 <0>         0.2124
      5 N1          0.3285   -2.7733   -0.1268 N.pl3     1 <0>        -0.7333
      6 C5          0.0885   -2.2012    1.1171 C.ar      1 <0>         0.2258
      7 C6          0.0246   -0.7929    1.2409 C.ar      1 <0>        -0.0602
      8 C7          0.0514   -0.2633    2.5201 C.ar      1 <0>        -0.0297
      9 C8         -0.3572   -1.0838    3.6118 C.ar      1 <0>        -0.0902
     10 C9         -0.3888   -2.4577    3.4602 C.ar      1 <0>        -0.0506
     11 C10        -0.1070   -3.0105    2.2249 C.ar      1 <0>        -0.1755
     12 C11        -0.7364   -0.3998    4.8671 C.ar      1 <0>        -0.0638
     13 C12        -1.1544   -1.1293    5.9770 C.ar      1 <0>        -0.1173
     14 C13        -1.5122   -0.4724    7.1393 C.ar      1 <0>         0.0835
     15 C14        -1.4514    0.9107    7.2055 C.ar      1 <0>        -0.1211
     16 C15        -1.0314    1.6437    6.1123 C.ar      1 <0>        -0.0993
     17 C16        -0.6713    0.9986    4.9401 C.ar      1 <0>         0.1044
     18 O1         -0.2462    1.7255    3.8694 O.3       1 <0>        -0.2353
     19 C17         0.5261    1.0613    2.9551 C.2       1 <0>         0.1379
     20 C18         1.6968    1.5720    2.5632 C.2       1 <0>        -0.1650
     21 Br1         2.2325    3.2817    3.1682 Br        1 <0>        -0.0382
     22 F1         -1.9233   -1.1804    8.2139 F         1 <0>        -0.1352
     23 C19         0.8885   -2.5030   -2.4887 C.3       1 <0>        -0.1551
     24 C20        -1.4874   -2.4994   -1.7371 C.3       1 <0>        -0.1607
     25 H1          1.0042    1.8824    0.0026 H         1 <0>         0.0727
     26 H2         -0.5456    1.8662   -0.8727 H         1 <0>         0.0707
     27 H3         -0.5286    1.8567    0.9071 H         1 <0>         0.0673
     28 H4          0.0309    0.0293   -2.0735 H         1 <0>         0.1296
     29 H5          0.7614   -3.6499   -0.1785 H         1 <0>         0.4063
     30 H6         -0.6312   -3.0985    4.2952 H         1 <0>         0.1355
     31 H7         -0.0397   -4.0836    2.1194 H         1 <0>         0.1323
     32 H8         -1.1964   -2.2077    5.9330 H         1 <0>         0.1438
     33 H9         -1.7337    1.4181    8.1159 H         1 <0>         0.1479
     34 H10        -0.9799    2.7208    6.1737 H         1 <0>         0.1487
     35 H11         2.3372    1.0085    1.9008 H         1 <0>         0.1670
     36 H12         1.9058   -2.2021   -2.2383 H         1 <0>         0.0638
     37 H13         0.8506   -3.5849   -2.6160 H         1 <0>         0.0641
     38 H14         0.5836   -2.0173   -3.4156 H         1 <0>         0.0749
     39 H15        -1.7691   -2.0144   -2.6717 H         1 <0>         0.0681
     40 H16        -1.5326   -3.5813   -1.8612 H         1 <0>         0.0622
     41 H17        -2.1752   -2.1951   -0.9481 H         1 <0>         0.0573
@<TRIPOS>BOND
     1    1    2 1
     2    1   25 1
     3    1   26 1
     4    1   27 1
     5    2    7 1
     6    2    3 2
     7    3    4 1
     8    3   28 1
     9    4    5 1
    10    4   23 1
    11    4   24 1
    12    5    6 1
    13    5   29 1
    14    6   11 ar
    15    6    7 ar
    16    7    8 ar
    17    8   19 1
    18    8    9 ar
    19    9   10 ar
    20    9   12 1
    21   10   11 ar
    22   10   30 1
    23   11   31 1
    24   12   17 ar
    25   12   13 ar
    26   13   14 ar
    27   13   32 1
    28   14   15 ar
    29   14   22 1
    30   15   16 ar
    31   15   33 1
    32   16   17 ar
    33   16   34 1
    34   17   18 1
    35   18   19 1
    36   19   20 2
    37   20   21 1
    38   20   35 1
    39   23   36 1
    40   23   37 1
    41   23   38 1
    42   24   39 1
    43   24   40 1
    44   24   41 1
@<TRIPOS>MOLECULE
CHEMBL312500
   58    62     0     0     0
SMALL
USER_CHARGES

@<TRIPOS>ATOM
      1 C1         -0.0083    1.5257    0.0162 C.3       1 <0>        -0.1539
      2 C2          0.0132   -0.0042    0.0081 C.3       1 <0>        -0.0509
      3 C3         -1.4230   -0.5353    0.0100 C.3       1 <0>        -0.1073
      4 C4         -2.1743    0.0154    1.2255 C.3       1 <0>        -0.1723
      5 C5         -1.3875   -0.3337    2.4697 C.2       1 <0>         0.3611
      6 O1         -1.9160   -0.8865    3.4043 O.2       1 <0>        -0.4590
      7 C6          0.0795    0.0292    2.5091 C.3       1 <0>        -0.1688
      8 C7          0.7566   -0.5105    1.2448 C.3       1 <0>        -0.0668
      9 C8          2.2049   -0.0159    1.2185 C.3       1 <0>        -0.1156
     10 C9          2.9010   -0.5149   -0.0482 C.3       1 <0>        -0.1138
     11 C10         2.1625    0.0271   -1.2737 C.3       1 <0>        -0.0754
     12 C11         0.7197   -0.4983   -1.2566 C.3       1 <0>        -0.0663
     13 C12        -0.0560   -0.0517   -2.4911 C.3       1 <0>        -0.1213
     14 C13         0.6745   -0.4452   -3.7860 C.3       1 <0>        -0.1017
     15 C14         2.0542    0.1784   -3.7323 C.3       1 <0>        -0.0533
     16 C15         2.8143   -0.4772   -2.5475 C.3       1 <0>        -0.0817
     17 C16         4.2502    0.0000   -2.7954 C.3       1 <0>        -0.1136
     18 C17         4.4008   -0.1311   -4.3376 C.3       1 <0>        -0.1375
     19 C18         2.9741   -0.0626   -4.9127 C.3       1 <0>         0.1207
     20 C19         2.6322   -1.3813   -5.6337 C.3       1 <0>        -0.1461
     21 C20         3.2493   -1.1168   -7.0357 C.3       1 <0>        -0.1567
     22 C21         3.0434    0.4045   -7.2052 C.3       1 <0>         0.0488
     23 O2          2.8747    0.9669   -5.8962 O.3       1 <0>        -0.3635
     24 C22         1.9291    1.6817   -3.4768 C.3       1 <0>        -0.1396
     25 H1          1.0141    1.9034    0.0053 H         1 <0>         0.0643
     26 H2         -0.5383    1.8862   -0.8654 H         1 <0>         0.0610
     27 H3         -0.5160    1.8771    0.9144 H         1 <0>         0.0571
     28 H4         -1.9281   -0.2188   -0.9026 H         1 <0>         0.0807
     29 H5         -1.4071   -1.6242    0.0562 H         1 <0>         0.0665
     30 H6         -2.2661    1.0983    1.1408 H         1 <0>         0.1007
     31 H7         -3.1656   -0.4346    1.2794 H         1 <0>         0.0869
     32 H8          0.1868    1.1133    2.5457 H         1 <0>         0.1010
     33 H9          0.5423   -0.4156    3.3900 H         1 <0>         0.0873
     34 H10         0.7396   -1.6003    1.2597 H         1 <0>         0.0746
     35 H11         2.2158    1.0740    1.2324 H         1 <0>         0.0679
     36 H12         2.7326   -0.3934    2.0944 H         1 <0>         0.0635
     37 H13         3.9326   -0.1632   -0.0596 H         1 <0>         0.0648
     38 H14         2.8864   -1.6046   -0.0666 H         1 <0>         0.0611
     39 H15         2.1696    1.1169   -1.2593 H         1 <0>         0.0868
     40 H16         0.7413   -1.5880   -1.2441 H         1 <0>         0.0666
     41 H17        -1.0409   -0.5184   -2.4814 H         1 <0>         0.0639
     42 H18        -0.1758    1.0314   -2.4644 H         1 <0>         0.0722
     43 H19         0.7600   -1.5300   -3.8485 H         1 <0>         0.0636
     44 H20         0.1290   -0.0650   -4.6497 H         1 <0>         0.0641
     45 H21         2.7468   -1.5636   -2.6041 H         1 <0>         0.0747
     46 H22         4.3710    1.0373   -2.4831 H         1 <0>         0.0702
     47 H23         4.9644   -0.6438   -2.2822 H         1 <0>         0.0655
     48 H24         5.0023    0.6904   -4.7269 H         1 <0>         0.0726
     49 H25         4.8614   -1.0863   -4.5896 H         1 <0>         0.0676
     50 H26         3.1113   -2.2310   -5.1472 H         1 <0>         0.0816
     51 H27         1.5538   -1.5252   -5.6995 H         1 <0>         0.0820
     52 H28         4.3099   -1.3680   -7.0461 H         1 <0>         0.0750
     53 H29         2.7114   -1.6690   -7.8064 H         1 <0>         0.0800
     54 H30         3.9166    0.8445   -7.6870 H         1 <0>         0.0666
     55 H31         2.1537    0.5927   -7.8061 H         1 <0>         0.0673
     56 H32         1.3401    1.8492   -2.5751 H         1 <0>         0.0643
     57 H33         2.9222    2.1121   -3.3473 H         1 <0>         0.0543
     58 H34         1.4360    2.1549   -4.3260 H         1 <0>         0.0581
@<TRIPOS>BOND
     1    1    2 1
     2    1   25 1
     3    1   26 1
     4    1   27 1
     5    2    8 1
     6    2   12 1
     7    2    3 1
     8    3    4 1
     9    3   28 1
    10    3   29 1
    11    4    5 1
    12    4   30 1
    13    4   31 1
    14    5    6 2
    15    5    7 1
    16    7    8 1
    17    7   32 1
    18    7   33 1
    19    8    9 1
    20    8   34 1
    21    9   10 1
    22    9   35 1
    23    9   36 1
    24   10   11 1
    25   10   37 1
    26   10   38 1
    27   11   16 1
    28   11   12 1
    29   11   39 1
    30   12   13 1
    31   12   40 1
    32   13   14 1
    33   13   41 1
    34   13   42 1
    35   14   15 1
    36   14   43 1
    37   14   44 1
    38   15   19 1
    39   15   16 1
    40   15   24 1
    41   16   17 1
    42   16   45 1
    43   17   18 1
    44   17   46 1
    45   17   47 1
    46   18   19 1
    47   18   48 1
    48   18   49 1
    49   19   23 1
    50   19   20 1
    51   20   21 1
    52   20   50 1
    53   20   51 1
    54   21   22 1
    55   21   52 1
    56   21   53 1
    57   22   23 1
    58   22   54 1
    59   22   55 1
    60   24   56 1
    61   24   57 1
    62   24   58 1
@<TRIPOS>MOLECULE
CHEMBL1210091
   55    59     0     0     0
SMALL
USER_CHARGES

@<TRIPOS>ATOM
      1 C1          0.0128    1.4962    0.1212 C.3       1 <0>        -0.1416
      2 C2          0.0246   -0.0325    0.0601 C.3       1 <0>         0.1072
      3 C3         -1.3978   -0.6169    0.0908 C.3       1 <0>         0.1050
      4 N1         -1.2862   -2.0830    0.0054 N.pl3     1 <0>        -0.9990
      5 C4         -0.2962   -2.7541    0.8645 C.3       1 <0>         0.1070
      6 C5          1.0249   -1.9730    0.7642 C.3       1 <0>         0.1077
      7 O1          0.7570   -0.6105    1.1631 O.3       1 <0>        -0.3350
      8 C6          1.4131   -1.8775   -0.7279 C.3       1 <0>        -0.1457
      9 H1          1.1090   -2.7520   -1.3031 H         1 <0>         0.1462
     10 C7          0.7416   -0.5528   -1.2055 C.3       1 <0>        -0.1483
     11 H2          0.0644   -0.7031   -2.0464 H         1 <0>         0.1398
     12 C8          1.9069    0.3567   -1.5231 C.2       1 <0>         0.5447
     13 O2          1.8164    1.4942   -1.9322 O.2       1 <0>        -0.4514
     14 N2          3.0536   -0.2890   -1.2816 N.am      1 <0>        -0.5417
     15 C9          2.8923   -1.5843   -0.8375 C.2       1 <0>         0.5456
     16 O3          3.7822   -2.3592   -0.5599 O.2       1 <0>        -0.4348
     17 C10         4.3081    0.2968   -1.4810 C.ar      1 <0>         0.1393
     18 C11         5.1301    0.5634   -0.3915 C.ar      1 <0>        -0.0663
     19 C12         6.3656    1.1405   -0.5837 C.ar      1 <0>        -0.0552
     20 C13         6.7932    1.4578   -1.8759 C.ar      1 <0>         0.0415
     21 C14         5.9646    1.1880   -2.9682 C.ar      1 <0>        -0.1306
     22 C15         4.7323    0.6058   -2.7683 C.ar      1 <0>        -0.0537
     23 C16         6.4207    1.5286   -4.3635 C.3       1 <0>         0.5074
     24 F1          5.4274    1.1673   -5.2801 F         1 <0>        -0.1689
     25 F2          6.6600    2.9041   -4.4532 F         1 <0>        -0.1666
     26 F3          7.5982    0.8307   -4.6527 F         1 <0>        -0.1673
     27 C17         8.0771    2.0584   -2.0800 C.1       1 <0>         0.2260
     28 N3          9.0956    2.5349   -2.2418 N.1       1 <0>        -0.3615
     29 C18         2.1278   -2.6097    1.6123 C.3       1 <0>        -0.1414
     30 S1         -2.2467   -2.9517   -1.0266 S.o2      1 <0>         2.6938
     31 O4         -2.3179   -4.2704   -0.5020 O.2       1 <0>        -0.9216
     32 O5         -3.4046   -2.1630   -1.2646 O.2       1 <0>        -0.9367
     33 C19        -1.3910   -3.0663   -2.5626 C.ar      1 <0>        -0.4568
     34 C20        -1.5792   -2.0910   -3.5239 C.ar      1 <0>        -0.0898
     35 C21        -0.9011   -2.1905   -4.7289 C.ar      1 <0>        -0.0868
     36 C22        -0.0553   -3.2722   -4.9230 C.ar      1 <0>        -0.1133
     37 C23         0.0826   -4.2082   -3.9159 C.ar      1 <0>         0.0833
     38 N4         -0.5744   -4.0785   -2.7797 N.ar      1 <0>        -0.3902
     39 H3          1.0372    1.8682    0.1099 H         1 <0>         0.0746
     40 H4         -0.5264    1.8901   -0.7403 H         1 <0>         0.0889
     41 H5         -0.4811    1.8193    1.0376 H         1 <0>         0.0817
     42 H6         -1.8911   -0.3382    1.0220 H         1 <0>         0.1046
     43 H7         -1.9697   -0.2405   -0.7574 H         1 <0>         0.1066
     44 H8         -0.6455   -2.7567    1.8970 H         1 <0>         0.1029
     45 H9         -0.1457   -3.7783    0.5230 H         1 <0>         0.1127
     46 H10         4.7989    0.3179    0.6068 H         1 <0>         0.1521
     47 H11         7.0031    1.3479    0.2631 H         1 <0>         0.1603
     48 H12         4.0929    0.3932   -3.6123 H         1 <0>         0.1535
     49 H13         2.3151   -3.6247    1.2621 H         1 <0>         0.0904
     50 H14         3.0405   -2.0204    1.5232 H         1 <0>         0.0721
     51 H15         1.8136   -2.6374    2.6556 H         1 <0>         0.0833
     52 H16        -2.2463   -1.2621   -3.3386 H         1 <0>         0.1556
     53 H17        -1.0289   -1.4436   -5.4985 H         1 <0>         0.1501
     54 H18         0.4884   -3.3818   -5.8496 H         1 <0>         0.1483
     55 H19         0.7393   -5.0535   -4.0592 H         1 <0>         0.1720
@<TRIPOS>BOND
     1    1    2 1
     2    1   39 1
     3    1   40 1
     4    1   41 1
     5    2    7 1
     6    2   10 1
     7    2    3 1
     8    3    4 1
     9    3   42 1
    10    3   43 1
    11    4    5 1
    12    4   30 1
    13    5    6 1
    14    5   44 1
    15    5   45 1
    16    6    7 1
    17    6    8 1
    18    6   29 1
    19    8    9 1
    20    8   15 1
    21    8   10 1
    22   10   11 1
    23   10   12 1
    24   12   13 2
    25   12   14 am
    26   14   15 am
    27   14   17 1
    28   15   16 2
    29   17   22 ar
    30   17   18 ar
    31   18   19 ar
    32   18   46 1
    33   19   20 ar
    34   19   47 1
    35   20   21 ar
    36   20   27 1
    37   21   22 ar
    38   21   23 1
    39   22   48 1
    40   23   24 1
    41   23   25 1
    42   23   26 1
    43   27   28 3
    44   29   49 1
    45   29   50 1
    46   29   51 1
    47   30   31 2
    48   30   32 2
    49   30   33 1
    50   33   38 ar
    51   33   34 ar
    52   34   35 ar
    53   34   52 1
    54   35   36 ar
    55   35   53 1
    56   36   37 ar
    57   36   54 1
    58   37   38 ar
    59   37   55 1
@<TRIPOS>MOLECULE
CHEMBL484727
   37    39     0     0     0
SMALL
USER_CHARGES

@<TRIPOS>ATOM
      1 C1         -1.9603    0.6112   -0.5049 C.3       1 <0>        -0.1082
      2 C2         -0.8471   -0.3766   -0.2681 C.ar      1 <0>        -0.0794
      3 C3          0.1031   -0.6121   -1.2669 C.ar      1 <0>         0.1647
      4 C4          1.1368   -1.5290   -1.0476 C.ar      1 <0>        -0.1439
      5 C5          1.2189   -2.1946    0.1412 C.ar      1 <0>        -0.0405
      6 C6          0.2690   -1.9602    1.1415 C.ar      1 <0>        -0.0371
      7 C7         -0.7628   -1.0381    0.9244 C.ar      1 <0>         0.0213
      8 Cl1        -1.9379   -0.7411    2.1673 Cl        1 <0>        -0.0431
      9 C8          0.3550   -2.6585    2.3888 C.1       1 <0>         0.2508
     10 N1          0.4232   -3.2124    3.3782 N.1       1 <0>        -0.4001
     11 N2          0.0217    0.0532   -2.4571 N.2       1 <0>        -0.5043
     12 C9          0.1003   -0.6106   -3.5866 C.2       1 <0>         0.6028
     13 N3          0.1451   -0.0649   -4.8310 N.pl3     1 <0>        -0.6209
     14 C10         0.6397    0.9693   -5.7495 C.3       1 <0>         0.1676
     15 C11         1.1171    0.1734   -6.9895 C.3       1 <0>        -0.1702
     16 C12         0.3143   -1.1483   -6.9453 C.3       1 <0>         0.0494
     17 H1          0.9865   -1.9976   -6.8228 H         1 <0>         0.1078
     18 C13        -0.5983   -1.0056   -5.7173 C.3       1 <0>         0.0774
     19 H2         -1.5921   -0.6417   -5.9781 H         1 <0>         0.1374
     20 C14        -0.6337   -2.2945   -4.8800 C.3       1 <0>         0.0249
     21 H3         -1.6571   -2.5392   -4.5958 H         1 <0>         0.1493
     22 O1          0.1571   -1.9637   -3.7149 O.3       1 <0>        -0.3126
     23 C15         0.0013   -3.4542   -5.6500 C.3       1 <0>         0.4643
     24 F1          1.3729   -3.2211   -5.7965 F         1 <0>        -0.1608
     25 F2         -0.1964   -4.6461   -4.9446 F         1 <0>        -0.1648
     26 F3         -0.5920   -3.5558   -6.9129 F         1 <0>        -0.1511
     27 O2         -0.4651   -1.2982   -8.1336 O.3       1 <0>        -0.5494
     28 H4         -1.6401    1.6029   -0.1856 H         1 <0>         0.0802
     29 H5         -2.2068    0.6332   -1.5664 H         1 <0>         0.0734
     30 H6         -2.8392    0.3118    0.0661 H         1 <0>         0.0731
     31 H7          1.8700   -1.7105   -1.8195 H         1 <0>         0.1375
     32 H8          2.0169   -2.9026    0.3096 H         1 <0>         0.1443
     33 H9         -0.1633    1.6545   -6.0213 H         1 <0>         0.0881
     34 H10         1.4713    1.5126   -5.3008 H         1 <0>         0.0940
     35 H11         0.8919    0.7235   -7.9031 H         1 <0>         0.1014
     36 H12         2.1859   -0.0296   -6.9216 H         1 <0>         0.0874
     37 H13         0.0593   -1.3413   -8.9450 H         1 <0>         0.3893
@<TRIPOS>BOND
     1    1    2 1
     2    1   28 1
     3    1   29 1
     4    1   30 1
     5    2    7 ar
     6    2    3 ar
     7    3    4 ar
     8    3   11 1
     9    4    5 ar
    10    4   31 1
    11    5    6 ar
    12    5   32 1
    13    6    7 ar
    14    6    9 1
    15    7    8 1
    16    9   10 3
    17   11   12 2
    18   12   22 1
    19   12   13 1
    20   13   18 1
    21   13   14 1
    22   14   15 1
    23   14   33 1
    24   14   34 1
    25   15   16 1
    26   15   35 1
    27   15   36 1
    28   16   17 1
    29   16   18 1
    30   16   27 1
    31   18   19 1
    32   18   20 1
    33   20   21 1
    34   20   22 1
    35   20   23 1
    36   23   24 1
    37   23   25 1
    38   23   26 1
    39   27   37 1
@<TRIPOS>MOLECULE
CHEMBL395483
   36    38     0     0     0
SMALL
USER_CHARGES

@<TRIPOS>ATOM
      1 C1         -0.0184    1.5028    0.0103 C.3       1 <0>        -0.1217
      2 C2          0.0021   -0.0041    0.0020 C.ar      1 <0>        -0.0475
      3 C3          0.0058   -0.6948   -1.2100 C.ar      1 <0>         0.0152
      4 C4          0.0252   -2.0901   -1.2198 C.ar      1 <0>        -0.0932
      5 C5          0.0407   -2.7877   -0.0334 C.ar      1 <0>        -0.0636
      6 C6          0.0369   -2.0983    1.1824 C.ar      1 <0>        -0.0085
      7 C7          0.0228   -0.6991    1.1914 C.ar      1 <0>         0.0016
      8 Cl1         0.0248    0.1601    2.6999 Cl        1 <0>        -0.0416
      9 C8          0.0530   -2.8229    2.4174 C.1       1 <0>         0.2464
     10 N1          0.0657   -3.3978    3.3971 N.1       1 <0>        -0.3916
     11 C9         -0.0113    0.0543   -2.4891 C.2       1 <0>        -0.1503
     12 C10        -1.0798    0.1919   -3.2968 C.2       1 <0>        -0.0425
     13 C11        -0.6411    1.0534   -4.4467 C.3       1 <0>         0.1075
     14 H1         -1.1248    2.0297   -4.4145 H         1 <0>         0.1247
     15 C12        -0.8476    0.3758   -5.8096 C.3       1 <0>         0.1066
     16 H2         -0.9066   -0.7062   -5.6920 H         1 <0>         0.0762
     17 C13         0.4090    0.7633   -6.6257 C.3       1 <0>        -0.1738
     18 C14         1.2702    1.6054   -5.6517 C.3       1 <0>         0.1458
     19 N2          0.8298    1.1755   -4.3086 N.am      1 <0>        -0.6276
     20 C15         1.1390    0.7719   -3.0741 C.2       1 <0>         0.5850
     21 O1          2.2036    0.9620   -2.5187 O.2       1 <0>        -0.5090
     22 O2         -2.0291    0.8735   -6.4408 O.3       1 <0>        -0.5565
     23 C16        -2.4488   -0.4024   -3.0880 C.3       1 <0>        -0.1076
     24 H3          1.0042    1.8801    0.0026 H         1 <0>         0.0867
     25 H4         -0.5455    1.8639   -0.8728 H         1 <0>         0.0716
     26 H5         -0.5286    1.8543    0.9071 H         1 <0>         0.0788
     27 H6          0.0277   -2.6230   -2.1591 H         1 <0>         0.1429
     28 H7          0.0553   -3.8675   -0.0420 H         1 <0>         0.1477
     29 H8          0.9507   -0.1304   -6.9354 H         1 <0>         0.0847
     30 H9          0.1282    1.3581   -7.4950 H         1 <0>         0.0984
     31 H10         2.3294    1.3924   -5.7960 H         1 <0>         0.0897
     32 H11         1.0712    2.6685   -5.7867 H         1 <0>         0.0846
     33 H12        -2.2086    0.4799   -7.3056 H         1 <0>         0.3879
     34 H13        -2.4576   -0.9782   -2.1626 H         1 <0>         0.0786
     35 H14        -3.1864    0.3976   -3.0252 H         1 <0>         0.0881
     36 H15        -2.6925   -1.0564   -3.9253 H         1 <0>         0.0863
@<TRIPOS>BOND
     1    1    2 1
     2    1   24 1
     3    1   25 1
     4    1   26 1
     5    2    7 ar
     6    2    3 ar
     7    3    4 ar
     8    3   11 1
     9    4    5 ar
    10    4   27 1
    11    5    6 ar
    12    5   28 1
    13    6    7 ar
    14    6    9 1
    15    7    8 1
    16    9   10 3
    17   11   20 1
    18   11   12 2
    19   12   13 1
    20   12   23 1
    21   13   14 1
    22   13   19 1
    23   13   15 1
    24   15   16 1
    25   15   17 1
    26   15   22 1
    27   17   18 1
    28   17   29 1
    29   17   30 1
    30   18   19 1
    31   18   31 1
    32   18   32 1
    33   19   20 am
    34   20   21 2
    35   22   33 1
    36   23   34 1
    37   23   35 1
    38   23   36 1
@<TRIPOS>MOLECULE
CHEMBL247453
   44    47     0     0     0
SMALL
USER_CHARGES

@<TRIPOS>ATOM
      1 C1         -0.0167    1.3781    0.0096 C.ar      1 <0>        -0.1114
      2 C2          1.1709    2.0855    0.0021 C.ar      1 <0>        -0.1196
      3 C3          2.3773    1.4107   -0.0130 C.ar      1 <0>        -0.1027
      4 C4          2.3960    0.0285   -0.0201 C.ar      1 <0>        -0.1046
      5 C5          1.2084   -0.6789   -0.0117 C.ar      1 <0>        -0.0914
      6 C6          0.0021   -0.0041    0.0020 C.ar      1 <0>        -0.1181
      7 C7          3.7112   -0.7071   -0.0376 C.3       1 <0>         0.1609
      8 H1          4.5080   -0.0486    0.3081 H         1 <0>         0.1161
      9 C8          4.0176   -1.1935   -1.4614 C.3       1 <0>         0.0614
     10 O1          2.9883   -2.0976   -1.8694 O.3       1 <0>        -0.2917
     11 C9          2.6538   -3.1028   -1.0208 C.ar      1 <0>         0.1384
     12 C10         2.9577   -3.0257    0.3306 C.ar      1 <0>         0.1024
     13 C11         2.6061   -4.0580    1.1922 C.ar      1 <0>        -0.0807
     14 C12         1.9520   -5.1775    0.7192 C.ar      1 <0>        -0.1488
     15 C13         1.6385   -5.2812   -0.6299 C.ar      1 <0>         0.1882
     16 C14         1.9893   -4.2385   -1.5098 C.ar      1 <0>        -0.1075
     17 C15         1.6518   -4.3623   -2.9270 C.2       1 <0>        -0.0704
     18 C16         1.0091   -5.4820   -3.3456 C.2       1 <0>        -0.1440
     19 C17         0.6787   -6.4977   -2.4255 C.2       1 <0>         0.5388
     20 O2          0.1015   -7.4949   -2.8235 O.2       1 <0>        -0.5200
     21 N1          0.9853   -6.3952   -1.1206 N.am      1 <0>        -0.6214
     22 H2          0.7437   -7.1133   -0.5148 H         1 <0>         0.4228
     23 C18         2.0095   -3.2700   -3.9017 C.3       1 <0>         0.5153
     24 F1          1.5801   -3.6299   -5.1836 F         1 <0>        -0.1757
     25 F2          1.3840   -2.0790   -3.5176 F         1 <0>        -0.1561
     26 F3          3.3965   -3.0871   -3.9087 F         1 <0>        -0.1630
     27 N2          3.6317   -1.8942    0.8306 N.pl3     1 <0>        -0.6215
     28 C19         4.2335   -1.8974    2.1662 C.3       1 <0>         0.0969
     29 C20         3.2068   -1.4075    3.1894 C.3       1 <0>         0.4229
     30 F4          2.0947   -2.2560    3.1770 F         1 <0>        -0.1788
     31 F5          3.7816   -1.4105    4.4649 F         1 <0>        -0.1835
     32 F6          2.8055   -0.1079    2.8618 F         1 <0>        -0.1743
     33 H3         -0.9591    1.9053    0.0259 H         1 <0>         0.1212
     34 H4          1.1563    3.1654    0.0076 H         1 <0>         0.1227
     35 H5          3.3051    1.9634   -0.0196 H         1 <0>         0.1214
     36 H6          1.2231   -1.7588   -0.0176 H         1 <0>         0.1205
     37 H7         -0.9258   -0.5567    0.0082 H         1 <0>         0.1195
     38 H8          4.0459   -0.3414   -2.1406 H         1 <0>         0.1258
     39 H9          4.9798   -1.7055   -1.4736 H         1 <0>         0.0817
     40 H10         2.8474   -3.9836    2.2422 H         1 <0>         0.1425
     41 H11         1.6841   -5.9733    1.3983 H         1 <0>         0.1455
     42 H12         0.7494   -5.5951   -4.3878 H         1 <0>         0.1720
     43 H13         4.5462   -2.9099    2.4215 H         1 <0>         0.1229
     44 H14         5.1001   -1.2362    2.1759 H         1 <0>         0.1255
@<TRIPOS>BOND
     1    1    6 ar
     2    1    2 ar
     3    1   33 1
     4    2    3 ar
     5    2   34 1
     6    3    4 ar
     7    3   35 1
     8    4    5 ar
     9    4    7 1
    10    5    6 ar
    11    5   36 1
    12    6   37 1
    13    7    8 1
    14    7   27 1
    15    7    9 1
    16    9   10 1
    17    9   38 1
    18    9   39 1
    19   10   11 1
    20   11   16 ar
    21   11   12 ar
    22   12   13 ar
    23   12   27 1
    24   13   14 ar
    25   13   40 1
    26   14   15 ar
    27   14   41 1
    28   15   21 1
    29   15   16 ar
    30   16   17 1
    31   17   18 2
    32   17   23 1
    33   18   19 1
    34   18   42 1
    35   19   20 2
    36   19   21 am
    37   21   22 1
    38   23   24 1
    39   23   25 1
    40   23   26 1
    41   27   28 1
    42   28   29 1
    43   28   43 1
    44   28   44 1
    45   29   30 1
    46   29   31 1
    47   29   32 1
@<TRIPOS>MOLECULE
CHEMBL207106
   31    34     0     0     0
SMALL
USER_CHARGES

@<TRIPOS>ATOM
      1 C1         -0.0178    1.4608    0.0101 C.3       1 <0>         0.0683
      2 N1          0.0021   -0.0041    0.0020 N.pl3     1 <0>        -0.4680
      3 C2         -0.0895   -0.7865   -1.1163 C.ar      1 <0>         0.1031
      4 C3         -0.2182   -0.4645   -2.4654 C.ar      1 <0>        -0.1118
      5 C4         -0.2859   -1.5163   -3.3623 C.ar      1 <0>        -0.1166
      6 C5         -0.2298   -2.8435   -2.9540 C.ar      1 <0>         0.0787
      7 C6         -0.1014   -3.1925   -1.6179 C.ar      1 <0>        -0.0888
      8 C7         -0.0307   -2.1406   -0.6962 C.ar      1 <0>        -0.0785
      9 C8          0.1029   -2.1136    0.7434 C.2       1 <0>        -0.1552
     10 C9          0.1219   -0.8024    1.1203 C.2       1 <0>         0.1182
     11 C10         0.2453   -0.3376    2.5165 C.ar      1 <0>        -0.0786
     12 C11        -0.1490    0.9528    2.8694 C.ar      1 <0>        -0.0676
     13 C12        -0.0278    1.3352    4.1965 C.ar      1 <0>        -0.1659
     14 C13         0.4725    0.4353    5.1188 C.ar      1 <0>         0.1180
     15 N2          0.8450   -0.7786    4.7605 N.ar      1 <0>        -0.4528
     16 C14         0.7587   -1.1924    3.5050 C.ar      1 <0>         0.1351
     17 S1          1.3016   -2.8131    3.0719 S.3       1 <0>        -0.0436
     18 C15         0.2125   -3.2811    1.6903 C.3       1 <0>        -0.0319
     19 O1         -0.3034   -3.8271   -3.8903 O.3       1 <0>        -0.4993
     20 H1          0.8988    1.8341    0.4668 H         1 <0>         0.0810
     21 H2         -0.0898    1.8288   -1.0134 H         1 <0>         0.0936
     22 H3         -0.8772    1.8093    0.5828 H         1 <0>         0.0804
     23 H4         -0.2636    0.5622   -2.7973 H         1 <0>         0.1345
     24 H5         -0.3861   -1.2983   -4.4153 H         1 <0>         0.1318
     25 H6         -0.0583   -4.2248   -1.3036 H         1 <0>         0.1397
     26 H7         -0.5387    1.6355    2.1289 H         1 <0>         0.1450
     27 H8         -0.3212    2.3272    4.5068 H         1 <0>         0.1454
     28 H9          0.5606    0.7320    6.1535 H         1 <0>         0.1673
     29 H10        -0.7773   -3.5410    2.0656 H         1 <0>         0.1026
     30 H11         0.6427   -4.1356    1.1680 H         1 <0>         0.1280
     31 H12         0.5548   -4.0996   -4.2428 H         1 <0>         0.3881
@<TRIPOS>BOND
     1    1    2 1
     2    1   20 1
     3    1   21 1
     4    1   22 1
     5    2   10 1
     6    2    3 1
     7    3    8 ar
     8    3    4 ar
     9    4    5 ar
    10    4   23 1
    11    5    6 ar
    12    5   24 1
    13    6    7 ar
    14    6   19 1
    15    7    8 ar
    16    7   25 1
    17    8    9 1
    18    9   18 1
    19    9   10 2
    20   10   11 1
    21   11   16 ar
    22   11   12 ar
    23   12   13 ar
    24   12   26 1
    25   13   14 ar
    26   13   27 1
    27   14   15 ar
    28   14   28 1
    29   15   16 ar
    30   16   17 1
    31   17   18 1
    32   18   29 1
    33   18   30 1
    34   19   31 1
@<TRIPOS>MOLECULE
CHEMBL217324
   43    46     0     0     0
SMALL
USER_CHARGES

@<TRIPOS>ATOM
      1 C1         -0.0168    1.3900    0.0097 C.ar      1 <0>        -0.1253
      2 C2          1.1587    2.1076    0.0023 C.ar      1 <0>        -0.1090
      3 C3          2.3797    1.4418   -0.0129 C.ar      1 <0>         0.1345
      4 C4          2.4044    0.0342   -0.0206 C.ar      1 <0>        -0.0614
      5 C5          1.2051   -0.6848   -0.0130 C.ar      1 <0>        -0.1469
      6 C6          0.0021   -0.0041    0.0020 C.ar      1 <0>         0.2064
      7 N1         -1.2013   -0.7169    0.0101 N.pl3     1 <0>        -0.6175
      8 C7         -2.4780    0.0014    0.0266 C.3       1 <0>         0.1529
      9 C8         -2.9367    0.2592   -1.4101 C.3       1 <0>        -0.1752
     10 C9         -3.0458    1.7156   -1.8663 C.3       1 <0>        -0.1774
     11 C10        -4.3129    0.8977   -1.6085 C.3       1 <0>        -0.1753
     12 C11        -1.1851   -2.1818    0.0021 C.3       1 <0>         0.1517
     13 C12        -1.1651   -2.6995    1.4417 C.3       1 <0>        -0.1755
     14 C13         0.0641   -3.4923    1.8904 C.3       1 <0>        -0.1755
     15 C14        -1.2645   -4.2120    1.6499 C.3       1 <0>        -0.1750
     16 C15         3.6972   -0.6532   -0.0360 C.2       1 <0>        -0.0901
     17 C16         4.8286    0.0940   -0.0424 C.2       1 <0>        -0.1305
     18 C17         4.7501    1.5030   -0.0337 C.2       1 <0>         0.5341
     19 N2          3.5683    2.1439   -0.0200 N.am      1 <0>        -0.6188
     20 O1          5.7797    2.1555   -0.0388 O.2       1 <0>        -0.5266
     21 C18         3.7686   -2.1584   -0.0442 C.3       1 <0>         0.5086
     22 F1          5.1082   -2.5616   -0.0587 F         1 <0>        -0.1685
     23 F2          3.1426   -2.6613    1.1014 F         1 <0>        -0.1652
     24 F3          3.1214   -2.6499   -1.1830 F         1 <0>        -0.1678
     25 H1         -0.9621    1.9121    0.0260 H         1 <0>         0.1367
     26 H2          1.1324    3.1872    0.0080 H         1 <0>         0.1394
     27 H3          1.2186   -1.7647   -0.0193 H         1 <0>         0.1356
     28 H4         -3.2260   -0.5988    0.5446 H         1 <0>         0.0827
     29 H5         -2.3532    0.9525    0.5443 H         1 <0>         0.0780
     30 H6         -2.6123   -0.4762   -2.1463 H         1 <0>         0.1065
     31 H7         -2.7908    2.4900   -1.1429 H         1 <0>         0.0940
     32 H8         -2.7929    1.9385   -2.9029 H         1 <0>         0.0939
     33 H9         -4.8937    0.5827   -2.4754 H         1 <0>         0.0954
     34 H10        -4.8915    1.1341   -0.7155 H         1 <0>         0.0958
     35 H11        -2.0760   -2.5522   -0.5050 H         1 <0>         0.0829
     36 H12        -0.2962   -2.5324   -0.5225 H         1 <0>         0.0768
     37 H13        -1.6468   -2.0572    2.1789 H         1 <0>         0.1065
     38 H14         0.8586   -3.6451    1.1599 H         1 <0>         0.0937
     39 H15         0.3914   -3.3716    2.9230 H         1 <0>         0.0942
     40 H16        -1.8113   -4.5647    2.5244 H         1 <0>         0.0956
     41 H17        -1.3441   -4.8382    0.7614 H         1 <0>         0.0955
     42 H18         5.7935   -0.3910   -0.0538 H         1 <0>         0.1708
     43 H19         3.5506    3.1137   -0.0150 H         1 <0>         0.4196
@<TRIPOS>BOND
     1    1    6 ar
     2    1    2 ar
     3    1   25 1
     4    2    3 ar
     5    2   26 1
     6    3   19 1
     7    3    4 ar
     8    4    5 ar
     9    4   16 1
    10    5    6 ar
    11    5   27 1
    12    6    7 1
    13    7    8 1
    14    7   12 1
    15    8    9 1
    16    8   28 1
    17    8   29 1
    18    9   11 1
    19    9   10 1
    20    9   30 1
    21   10   11 1
    22   10   31 1
    23   10   32 1
    24   11   33 1
    25   11   34 1
    26   12   13 1
    27   12   35 1
    28   12   36 1
    29   13   15 1
    30   13   14 1
    31   13   37 1
    32   14   15 1
    33   14   38 1
    34   14   39 1
    35   15   40 1
    36   15   41 1
    37   16   17 2
    38   16   21 1
    39   17   18 1
    40   17   42 1
    41   18   19 am
    42   18   20 2
    43   19   43 1
    44   21   22 1
    45   21   23 1
    46   21   24 1
@<TRIPOS>MOLECULE
CHEMBL146794
   63    65     0     0     0
SMALL
USER_CHARGES

@<TRIPOS>ATOM
      1 C1         -0.0263    1.5154   -0.0197 C.3       1 <0>        -0.1484
      2 C2          0.0054   -0.0142   -0.0043 C.3       1 <0>         0.1216
      3 C3         -1.3948   -0.5751    0.1455 C.2       1 <0>         0.5283
      4 O1         -2.3277   -0.4283   -0.6148 O.2       1 <0>        -0.4404
      5 N1         -1.3868   -1.2717    1.2992 N.am      1 <0>        -0.5233
      6 C4         -0.1886   -1.2293    1.8929 C.2       1 <0>         0.7059
      7 O2          0.0639   -1.7826    2.9451 O.2       1 <0>        -0.5052
      8 N2          0.7055   -0.5060    1.1950 N.am      1 <0>        -0.6062
      9 C5          2.1030   -0.2565    1.5567 C.3       1 <0>         0.1529
     10 C6          2.1918    1.0163    2.4011 C.3       1 <0>         0.0347
     11 O3          1.5108    0.8139    3.6409 O.3       1 <0>        -0.3642
     12 C7          1.5342    1.9488    4.5090 C.3       1 <0>         0.0650
     13 C8          0.7794    1.6201    5.7987 C.3       1 <0>         0.0650
     14 O4          1.4713    0.5889    6.5058 O.3       1 <0>        -0.3701
     15 C9          0.8463    0.2051    7.7322 C.3       1 <0>         0.1045
     16 C10         1.6563   -0.8822    8.3901 C.ar      1 <0>        -0.1082
     17 C11         1.3910   -2.2108    8.1005 C.ar      1 <0>        -0.0474
     18 C12         2.1261   -3.2158    8.6968 C.ar      1 <0>        -0.1572
     19 C13         3.1379   -2.9000    9.5915 C.ar      1 <0>         0.1783
     20 C14         3.4096   -1.5573    9.8867 C.ar      1 <0>        -0.1762
     21 C15         2.6611   -0.5502    9.2725 C.ar      1 <0>        -0.0491
     22 C16         4.4833   -1.2091   10.8368 C.2       1 <0>         0.5633
     23 O5          5.1354   -2.0883   11.3662 O.2       1 <0>        -0.5236
     24 N3          4.7414    0.0835   11.1179 N.am      1 <0>        -0.8536
     25 O6          3.8608   -3.8865   10.1785 O.3       1 <0>        -0.4780
     26 C17        -2.4946   -1.9541    1.8128 C.ar      1 <0>         0.1669
     27 C18        -2.3566   -2.7452    2.9480 C.ar      1 <0>        -0.1048
     28 C19        -3.4448   -3.4185    3.4567 C.ar      1 <0>        -0.0473
     29 C20        -4.6894   -3.3056    2.8306 C.ar      1 <0>         0.0157
     30 C21        -4.8241   -2.5093    1.6902 C.ar      1 <0>        -0.1208
     31 C22        -3.7319   -1.8350    1.1903 C.ar      1 <0>        -0.0969
     32 C23        -6.1636   -2.3846    1.0111 C.3       1 <0>         0.5067
     33 F1         -6.0469   -1.5408   -0.0987 F         1 <0>        -0.1663
     34 F2         -6.5939   -3.6484    0.5929 F         1 <0>        -0.1687
     35 F3         -7.0934   -1.8487    1.9086 F         1 <0>        -0.1692
     36 C24        -5.8233   -4.0045    3.3561 C.1       1 <0>         0.2309
     37 N4         -6.7229   -4.5590    3.7730 N.1       1 <0>        -0.3727
     38 C25         0.6706   -0.5501   -1.2736 C.3       1 <0>        -0.1486
     39 H1          0.9937    1.8999   -0.0236 H         1 <0>         0.0834
     40 H2         -0.5475    1.8590   -0.9132 H         1 <0>         0.0883
     41 H3         -0.5475    1.8770    0.8666 H         1 <0>         0.0684
     42 H4          2.4861   -1.1005    2.1302 H         1 <0>         0.1044
     43 H5          2.6964   -0.1336    0.6507 H         1 <0>         0.1066
     44 H6          3.2384    1.2510    2.5955 H         1 <0>         0.0671
     45 H7          1.7281    1.8427    1.8625 H         1 <0>         0.0554
     46 H8          2.5670    2.2028    4.7471 H         1 <0>         0.0588
     47 H9          1.0568    2.7945    4.0141 H         1 <0>         0.0620
     48 H10         0.7205    2.5119    6.4225 H         1 <0>         0.0644
     49 H11        -0.2271    1.2805    5.5542 H         1 <0>         0.0577
     50 H12         0.7887    1.0676    8.3962 H         1 <0>         0.0586
     51 H13        -0.1588   -0.1638    7.5278 H         1 <0>         0.0622
     52 H14         0.6043   -2.4618    7.4045 H         1 <0>         0.1356
     53 H15         1.9129   -4.2492    8.4665 H         1 <0>         0.1400
     54 H16         2.8671    0.4870    9.4921 H         1 <0>         0.1298
     55 H17         4.2212    0.7849   10.6956 H         1 <0>         0.3992
     56 H18         5.4473    0.3124   11.7426 H         1 <0>         0.4061
     57 H19         4.6502   -4.1438    9.6829 H         1 <0>         0.3982
     58 H20        -1.3946   -2.8319    3.4313 H         1 <0>         0.1842
     59 H21        -3.3367   -4.0333    4.3380 H         1 <0>         0.1568
     60 H22        -3.8361   -1.2162    0.3114 H         1 <0>         0.1767
     61 H23         1.6965   -0.1858   -1.3277 H         1 <0>         0.0841
     62 H24         0.6728   -1.6398   -1.2503 H         1 <0>         0.0702
     63 H25         0.1165   -0.2064   -2.1470 H         1 <0>         0.0888
@<TRIPOS>BOND
     1    1    2 1
     2    1   39 1
     3    1   40 1
     4    1   41 1
     5    2    8 1
     6    2    3 1
     7    2   38 1
     8    3    4 2
     9    3    5 am
    10    5    6 am
    11    5   26 1
    12    6    7 2
    13    6    8 am
    14    8    9 1
    15    9   10 1
    16    9   42 1
    17    9   43 1
    18   10   11 1
    19   10   44 1
    20   10   45 1
    21   11   12 1
    22   12   13 1
    23   12   46 1
    24   12   47 1
    25   13   14 1
    26   13   48 1
    27   13   49 1
    28   14   15 1
    29   15   16 1
    30   15   50 1
    31   15   51 1
    32   16   21 ar
    33   16   17 ar
    34   17   18 ar
    35   17   52 1
    36   18   19 ar
    37   18   53 1
    38   19   20 ar
    39   19   25 1
    40   20   21 ar
    41   20   22 1
    42   21   54 1
    43   22   23 2
    44   22   24 am
    45   24   55 1
    46   24   56 1
    47   25   57 1
    48   26   31 ar
    49   26   27 ar
    50   27   28 ar
    51   27   58 1
    52   28   29 ar
    53   28   59 1
    54   29   30 ar
    55   29   36 1
    56   30   31 ar
    57   30   32 1
    58   31   60 1
    59   32   33 1
    60   32   34 1
    61   32   35 1
    62   36   37 3
    63   38   61 1
    64   38   62 1
    65   38   63 1
@<TRIPOS>MOLECULE
CHEMBL206909
   31    34     0     0     0
SMALL
USER_CHARGES

@<TRIPOS>ATOM
      1 C1         -0.0178    1.4608    0.0101 C.3       1 <0>         0.0721
      2 N1          0.0021   -0.0041    0.0020 N.pl3     1 <0>        -0.4639
      3 C2         -0.0894   -0.7934   -1.1171 C.ar      1 <0>         0.0885
      4 C3         -0.2041   -0.4720   -2.4665 C.ar      1 <0>        -0.1093
      5 C4         -0.2753   -1.5241   -3.3633 C.ar      1 <0>        -0.1259
      6 C5         -0.2353   -2.8509   -2.9526 C.ar      1 <0>         0.0768
      7 C6         -0.1215   -3.1995   -1.6151 C.ar      1 <0>        -0.0945
      8 C7         -0.0484   -2.1485   -0.6925 C.ar      1 <0>        -0.0767
      9 C8          0.0693   -2.1211    0.7465 C.2       1 <0>        -0.1684
     10 C9          0.1201   -0.7965    1.1032 C.2       1 <0>         0.1371
     11 C10         0.2810   -0.4373    2.5423 C.2       1 <0>        -0.0773
     12 C11         0.1010    0.8123    3.1313 C.2       1 <0>        -0.1467
     13 C12         0.2728    0.9536    4.4656 C.2       1 <0>        -0.1780
     14 S1          0.7096   -0.7036    4.9727 S.3       1 <0>         0.0861
     15 C13         0.6498   -1.4734    3.3819 C.2       1 <0>        -0.1341
     16 C14         0.9344   -2.8764    2.9705 C.3       1 <0>        -0.0405
     17 C15         0.1109   -3.2589    1.7306 C.3       1 <0>        -0.0341
     18 O1         -0.3102   -3.8350   -3.8882 O.3       1 <0>        -0.5007
     19 H1          1.0048    1.8380    0.0216 H         1 <0>         0.0735
     20 H2         -0.5283    1.8221   -0.8826 H         1 <0>         0.0869
     21 H3         -0.5446    1.8121    0.8973 H         1 <0>         0.0842
     22 H4         -0.2366    0.5548   -2.7997 H         1 <0>         0.1313
     23 H5         -0.3653   -1.3064   -4.4173 H         1 <0>         0.1287
     24 H6         -0.0904   -4.2321   -1.3001 H         1 <0>         0.1368
     25 H7         -0.1737    1.6635    2.5261 H         1 <0>         0.1330
     26 H8          0.1716    1.8423    5.0709 H         1 <0>         0.1905
     27 H9          1.9963   -2.9755    2.7457 H         1 <0>         0.0898
     28 H10         0.6780   -3.5488    3.7892 H         1 <0>         0.0891
     29 H11        -0.9064   -3.5119    2.0290 H         1 <0>         0.0762
     30 H12         0.5705   -4.1261    1.2564 H         1 <0>         0.0835
     31 H13         0.5484   -4.1161   -4.2330 H         1 <0>         0.3861
@<TRIPOS>BOND
     1    1    2 1
     2    1   19 1
     3    1   20 1
     4    1   21 1
     5    2   10 1
     6    2    3 1
     7    3    8 ar
     8    3    4 ar
     9    4    5 ar
    10    4   22 1
    11    5    6 ar
    12    5   23 1
    13    6    7 ar
    14    6   18 1
    15    7    8 ar
    16    7   24 1
    17    8    9 1
    18    9   17 1
    19    9   10 2
    20   10   11 1
    21   11   15 2
    22   11   12 1
    23   12   13 2
    24   12   25 1
    25   13   14 1
    26   13   26 1
    27   14   15 1
    28   15   16 1
    29   16   17 1
    30   16   27 1
    31   16   28 1
    32   17   29 1
    33   17   30 1
    34   18   31 1
@<TRIPOS>MOLECULE
CHEMBL223355
   92    96     0     0     0
SMALL
USER_CHARGES

@<TRIPOS>ATOM
      1 C1         -0.1018    1.8780    0.2146 C.3       1 <0>        -0.1327
      2 C2         -0.0937    0.3558    0.0606 C.3       1 <0>        -0.0565
      3 C3         -1.5139   -0.1722    0.1131 C.3       1 <0>        -0.1034
      4 C4         -2.1432    0.3380    1.4204 C.3       1 <0>        -0.1192
      5 C5         -1.3326   -0.0986    2.6359 C.3       1 <0>        -0.0675
      6 H1         -1.3688   -1.1854    2.7111 H         1 <0>         0.0673
      7 C6          0.1346    0.3420    2.5263 C.3       1 <0>        -0.0694
      8 H2          0.1943    1.4296    2.4860 H         1 <0>         0.0883
      9 C7          0.6843   -0.2871    1.2408 C.3       1 <0>        -0.0807
     10 H3          0.5422   -1.3677    1.2477 H         1 <0>         0.0755
     11 C8          2.1318    0.0753    0.8909 C.3       1 <0>        -0.1159
     12 C9          2.1889   -0.1630   -0.6428 C.3       1 <0>        -0.1601
     13 C10         0.7341   -0.0346   -1.1593 C.3       1 <0>         0.1098
     14 H4          0.3899   -0.9882   -1.5598 H         1 <0>         0.0551
     15 O1          0.6517    0.9825   -2.1597 O.3       1 <0>        -0.5601
     16 C11         0.8988   -0.1776    3.7458 C.3       1 <0>        -0.0778
     17 C12         0.2914    0.4243    5.0134 C.3       1 <0>        -0.1133
     18 C13        -1.1793    0.0158    5.1303 C.3       1 <0>        -0.0646
     19 H5         -1.2516   -1.0691    5.2079 H         1 <0>         0.0752
     20 C14        -1.9350    0.5044    3.9070 C.3       1 <0>        -0.0511
     21 C15        -3.4011    0.0739    4.0086 C.3       1 <0>        -0.1081
     22 C16        -4.0482    0.7368    5.2280 C.3       1 <0>        -0.1748
     23 C17        -3.2210    0.3970    6.4486 C.2       1 <0>         0.3646
     24 O2         -3.7351   -0.0695    7.4367 O.2       1 <0>        -0.4597
     25 C18        -1.7673    0.6611    6.3915 C.3       1 <0>        -0.1740
     26 C19        -1.8535    2.0306    3.8362 C.3       1 <0>        -0.1540
     27 C20         2.3694    0.2311    3.6398 C.3       1 <0>        -0.1323
     28 C21         3.1026   -0.1648    4.9230 C.3       1 <0>        -0.1230
     29 C22         4.5731    0.2440    4.8170 C.3       1 <0>        -0.1185
     30 C23         5.3063   -0.1519    6.1002 C.3       1 <0>        -0.1200
     31 C24         6.7769    0.2568    5.9942 C.3       1 <0>        -0.1194
     32 C25         7.5100   -0.1391    7.2774 C.3       1 <0>        -0.1047
     33 C26         8.9806    0.2697    7.1714 C.3       1 <0>        -0.1389
     34 C27         9.7027   -0.1203    8.4353 C.2       1 <0>         0.5133
     35 O3          9.1005   -0.6709    9.3326 O.2       1 <0>        -0.5347
     36 N1         11.0178    0.1429    8.5686 N.am      1 <0>        -0.6156
     37 C28        11.7453    0.8079    7.4848 C.3       1 <0>         0.0759
     38 C29        11.7198   -0.2362    9.7973 C.3       1 <0>         0.1536
     39 C30        12.2712   -1.6311    9.6509 C.ar      1 <0>        -0.1099
     40 C31        11.5043   -2.7198   10.0215 C.ar      1 <0>        -0.0956
     41 C32        12.0100   -3.9993    9.8872 C.ar      1 <0>        -0.1229
     42 C33        13.2825   -4.1901    9.3820 C.ar      1 <0>        -0.1159
     43 C34        14.0490   -3.1014    9.0106 C.ar      1 <0>        -0.1244
     44 C35        13.5417   -1.8221    9.1408 C.ar      1 <0>        -0.1082
     45 H6          0.9232    2.2486    0.2153 H         1 <0>         0.0529
     46 H7         -0.6489    2.3242   -0.6159 H         1 <0>         0.0575
     47 H8         -0.5856    2.1456    1.1540 H         1 <0>         0.0612
     48 H9         -2.0798    0.2001   -0.7409 H         1 <0>         0.0646
     49 H10        -1.5049   -1.2621    0.1065 H         1 <0>         0.0609
     50 H11        -2.1873    1.4268    1.3936 H         1 <0>         0.0715
     51 H12        -3.1556   -0.0567    1.5065 H         1 <0>         0.0638
     52 H13         2.3357    1.1198    1.1268 H         1 <0>         0.0722
     53 H14         2.8300   -0.5817    1.4095 H         1 <0>         0.0763
     54 H15         2.8212    0.5889   -1.1150 H         1 <0>         0.0712
     55 H16         2.5736   -1.1611   -0.8523 H         1 <0>         0.0653
     56 H17         1.1590    0.7891   -2.9599 H         1 <0>         0.3744
     57 H18         0.8240   -1.2643    3.7867 H         1 <0>         0.0680
     58 H19         0.8381    0.0624    5.8841 H         1 <0>         0.0682
     59 H20         0.3629    1.5110    4.9684 H         1 <0>         0.0679
     60 H21        -3.9318    0.3775    3.1062 H         1 <0>         0.0799
     61 H22        -3.4547   -1.0097    4.1135 H         1 <0>         0.0663
     62 H23        -4.0716    1.8177    5.0894 H         1 <0>         0.0998
     63 H24        -5.0630    0.3602    5.3556 H         1 <0>         0.0861
     64 H25        -1.2905    0.2369    7.2751 H         1 <0>         0.0880
     65 H26        -1.5978    1.7375    6.3640 H         1 <0>         0.1033
     66 H27        -2.4092    2.3842    2.9678 H         1 <0>         0.0605
     67 H28        -2.2826    2.4598    4.7416 H         1 <0>         0.0568
     68 H29        -0.8105    2.3351    3.7488 H         1 <0>         0.0649
     69 H30         2.8267   -0.2746    2.7893 H         1 <0>         0.0833
     70 H31         2.4375    1.3100    3.5005 H         1 <0>         0.0596
     71 H32         2.6453    0.3409    5.7735 H         1 <0>         0.0632
     72 H33         3.0345   -1.2437    5.0623 H         1 <0>         0.0587
     73 H34         5.0304   -0.2617    3.9665 H         1 <0>         0.0588
     74 H35         4.6413    1.3229    4.6777 H         1 <0>         0.0594
     75 H36         4.8491    0.3538    6.9507 H         1 <0>         0.0613
     76 H37         5.2382   -1.2308    6.2395 H         1 <0>         0.0611
     77 H38         7.2341   -0.2489    5.1437 H         1 <0>         0.0609
     78 H39         6.8450    1.3357    5.8549 H         1 <0>         0.0614
     79 H40         7.0528    0.3666    8.1279 H         1 <0>         0.0693
     80 H41         7.4419   -1.2180    7.4167 H         1 <0>         0.0687
     81 H42         9.4379   -0.2361    6.3209 H         1 <0>         0.0920
     82 H43         9.0487    1.3486    7.0321 H         1 <0>         0.0925
     83 H44        11.7011    1.8878    7.6266 H         1 <0>         0.0597
     84 H45        12.7857    0.4828    7.4925 H         1 <0>         0.0722
     85 H46        11.2905    0.5481    6.5289 H         1 <0>         0.0737
     86 H47        12.5381    0.4608    9.9780 H         1 <0>         0.0856
     87 H48        11.0251   -0.2064   10.6367 H         1 <0>         0.0929
     88 H49        10.5101   -2.5708   10.4163 H         1 <0>         0.1277
     89 H50        11.4111   -4.8499   10.1774 H         1 <0>         0.1221
     90 H51        13.6778   -5.1897    9.2777 H         1 <0>         0.1216
     91 H52        15.0433   -3.2504    8.6161 H         1 <0>         0.1220
     92 H53        14.1392   -0.9717    8.8472 H         1 <0>         0.1195
@<TRIPOS>BOND
     1    1    2 1
     2    1   45 1
     3    1   46 1
     4    1   47 1
     5    2    9 1
     6    2   13 1
     7    2    3 1
     8    3    4 1
     9    3   48 1
    10    3   49 1
    11    4    5 1
    12    4   50 1
    13    4   51 1
    14    5    6 1
    15    5   20 1
    16    5    7 1
    17    7    8 1
    18    7    9 1
    19    7   16 1
    20    9   10 1
    21    9   11 1
    22   11   12 1
    23   11   52 1
    24   11   53 1
    25   12   13 1
    26   12   54 1
    27   12   55 1
    28   13   14 1
    29   13   15 1
    30   15   56 1
    31   16   17 1
    32   16   27 1
    33   16   57 1
    34   17   18 1
    35   17   58 1
    36   17   59 1
    37   18   19 1
    38   18   25 1
    39   18   20 1
    40   20   21 1
    41   20   26 1
    42   21   22 1
    43   21   60 1
    44   21   61 1
    45   22   23 1
    46   22   62 1
    47   22   63 1
    48   23   24 2
    49   23   25 1
    50   25   64 1
    51   25   65 1
    52   26   66 1
    53   26   67 1
    54   26   68 1
    55   27   28 1
    56   27   69 1
    57   27   70 1
    58   28   29 1
    59   28   71 1
    60   28   72 1
    61   29   30 1
    62   29   73 1
    63   29   74 1
    64   30   31 1
    65   30   75 1
    66   30   76 1
    67   31   32 1
    68   31   77 1
    69   31   78 1
    70   32   33 1
    71   32   79 1
    72   32   80 1
    73   33   34 1
    74   33   81 1
    75   33   82 1
    76   34   35 2
    77   34   36 am
    78   36   37 1
    79   36   38 1
    80   37   83 1
    81   37   84 1
    82   37   85 1
    83   38   39 1
    84   38   86 1
    85   38   87 1
    86   39   44 ar
    87   39   40 ar
    88   40   41 ar
    89   40   88 1
    90   41   42 ar
    91   41   89 1
    92   42   43 ar
    93   42   90 1
    94   43   44 ar
    95   43   91 1
    96   44   92 1
@<TRIPOS>MOLECULE
CHEMBL223355__1
   92    96     0     0     0
SMALL
USER_CHARGES

@<TRIPOS>ATOM
      1 C1         -0.0187    1.5258    0.0104 C.3       1 <0>        -0.1330
      2 C2          0.0021   -0.0041    0.0020 C.3       1 <0>        -0.0572
      3 C3         -1.4161   -0.5361    0.0674 C.3       1 <0>        -0.1028
      4 C4         -2.0828    0.0906    1.3034 C.3       1 <0>        -0.1199
      5 C5         -1.3025   -0.2223    2.5757 C.3       1 <0>        -0.0691
      6 H1         -1.3347   -1.2973    2.7528 H         1 <0>         0.0719
      7 C6          0.1645    0.2178    2.4629 C.3       1 <0>        -0.0696
      8 H2          0.2192    1.2972    2.3211 H         1 <0>         0.0872
      9 C7          0.7519   -0.5258    1.2577 C.3       1 <0>        -0.0818
     10 H3          0.6157   -1.6021    1.3636 H         1 <0>         0.0792
     11 C8          2.2062   -0.1865    0.9129 C.3       1 <0>        -0.1122
     12 C9          2.3055   -0.5687   -0.5893 C.3       1 <0>        -0.1572
     13 C10         0.8643   -0.5016   -1.1533 C.3       1 <0>         0.1099
     14 H4          0.5363   -1.4916   -1.4703 H         1 <0>         0.0553
     15 O1          0.8030    0.4153   -2.2476 O.3       1 <0>        -0.5601
     16 C11         0.8988   -0.1776    3.7458 C.3       1 <0>        -0.0790
     17 C12         0.2544    0.5368    4.9342 C.3       1 <0>        -0.1131
     18 C13        -1.2166    0.1293    5.0511 C.3       1 <0>        -0.0645
     19 H5         -1.2848   -0.9438    5.2295 H         1 <0>         0.0795
     20 C14        -1.9420    0.4937    3.7676 C.3       1 <0>        -0.0508
     21 C15        -3.4079    0.0629    3.8714 C.3       1 <0>        -0.1079
     22 C16        -4.0910    0.8331    5.0051 C.3       1 <0>        -0.1750
     23 C17        -3.2949    0.6173    6.2736 C.2       1 <0>         0.3648
     24 O2         -3.8325    0.2424    7.2878 O.2       1 <0>        -0.4597
     25 C18        -1.8417    0.8866    6.2295 C.3       1 <0>        -0.1748
     26 C19        -1.8672    2.0069    3.5543 C.3       1 <0>        -0.1543
     27 C20         0.8008   -1.6914    3.9450 C.3       1 <0>        -0.1190
     28 C21         1.6386   -2.1015    5.1578 C.3       1 <0>        -0.1212
     29 C22         1.5406   -3.6153    5.3570 C.3       1 <0>        -0.1187
     30 C23         2.3784   -4.0254    6.5698 C.3       1 <0>        -0.1197
     31 C24         2.2804   -5.5392    6.7690 C.3       1 <0>        -0.1195
     32 C25         3.1182   -5.9493    7.9818 C.3       1 <0>        -0.1046
     33 C26         3.0202   -7.4631    8.1810 C.3       1 <0>        -0.1390
     34 C27         3.8454   -7.8671    9.3756 C.2       1 <0>         0.5135
     35 O3          4.4521   -7.0269   10.0055 O.2       1 <0>        -0.5347
     36 N1          3.9091   -9.1620    9.7438 N.am      1 <0>        -0.6156
     37 C28         3.1762  -10.1769    8.9828 C.3       1 <0>         0.0759
     38 C29         4.7113   -9.5547   10.9051 C.3       1 <0>         0.1537
     39 C30         3.8570   -9.5053   12.1456 C.ar      1 <0>        -0.1101
     40 C31         3.7739   -8.3382   12.8816 C.ar      1 <0>        -0.0957
     41 C32         2.9903   -8.2929   14.0195 C.ar      1 <0>        -0.1228
     42 C33         2.2895   -9.4147   14.4211 C.ar      1 <0>        -0.1158
     43 C34         2.3719  -10.5816   13.6846 C.ar      1 <0>        -0.1244
     44 C35         3.1521  -10.6256   12.5443 C.ar      1 <0>        -0.1082
     45 H6          1.0039    1.9031    0.0027 H         1 <0>         0.0527
     46 H7         -0.5459    1.8868   -0.8726 H         1 <0>         0.0574
     47 H8         -0.5289    1.8773    0.9072 H         1 <0>         0.0614
     48 H9         -1.9610   -0.2510   -0.8325 H         1 <0>         0.0643
     49 H10        -1.4008   -1.6217    0.1646 H         1 <0>         0.0607
     50 H11        -2.1323    1.1715    1.1723 H         1 <0>         0.0711
     51 H12        -3.0949   -0.3023    1.4003 H         1 <0>         0.0634
     52 H13         2.3979    0.8772    1.0537 H         1 <0>         0.0694
     53 H14         2.8939   -0.7857    1.5096 H         1 <0>         0.0652
     54 H15         2.9460    0.1401   -1.1141 H         1 <0>         0.0713
     55 H16         2.7012   -1.5790   -0.6929 H         1 <0>         0.0654
     56 H17         1.3325    0.1511   -3.0123 H         1 <0>         0.3745
     57 H18         1.9465    0.1136    3.6703 H         1 <0>         0.0720
     58 H19         0.7797    0.2635    5.8494 H         1 <0>         0.0665
     59 H20         0.3210    1.6150    4.7881 H         1 <0>         0.0669
     60 H21        -3.9160    0.2752    2.9308 H         1 <0>         0.0798
     61 H22        -3.4582   -1.0063    4.0773 H         1 <0>         0.0659
     62 H23        -4.1167    1.8958    4.7639 H         1 <0>         0.0997
     63 H24        -5.1068    0.4621    5.1413 H         1 <0>         0.0858
     64 H25        -1.3863    0.5518    7.1616 H         1 <0>         0.0877
     65 H26        -1.6775    1.9568    6.1043 H         1 <0>         0.1030
     66 H27        -2.4015    2.2720    2.6420 H         1 <0>         0.0604
     67 H28        -2.3227    2.5165    4.4034 H         1 <0>         0.0567
     68 H29        -0.8240    2.3101    3.4655 H         1 <0>         0.0647
     69 H30        -0.2399   -1.9693    4.1116 H         1 <0>         0.0662
     70 H31         1.1749   -2.1998    3.0564 H         1 <0>         0.0634
     71 H32         2.6793   -1.8236    4.9912 H         1 <0>         0.0593
     72 H33         1.2646   -1.5931    6.0465 H         1 <0>         0.0626
     73 H34         0.4999   -3.8933    5.5236 H         1 <0>         0.0588
     74 H35         1.9147   -4.1237    4.4684 H         1 <0>         0.0590
     75 H36         3.4191   -3.7475    6.4032 H         1 <0>         0.0614
     76 H37         2.0043   -3.5170    7.4585 H         1 <0>         0.0613
     77 H38         1.2397   -5.8172    6.9356 H         1 <0>         0.0610
     78 H39         2.6545   -6.0476    5.8803 H         1 <0>         0.0612
     79 H40         4.1589   -5.6714    7.8152 H         1 <0>         0.0692
     80 H41         2.7441   -5.4410    8.8705 H         1 <0>         0.0688
     81 H42         1.9794   -7.7411    8.3476 H         1 <0>         0.0920
     82 H43         3.3942   -7.9715    7.2923 H         1 <0>         0.0924
     83 H44         3.8112  -10.5616    8.1848 H         1 <0>         0.0596
     84 H45         2.8917  -10.9934    9.6464 H         1 <0>         0.0723
     85 H46         2.2804   -9.7306    8.5510 H         1 <0>         0.0736
     86 H47         5.0859  -10.5682   10.7619 H         1 <0>         0.0856
     87 H48         5.5514   -8.8689   11.0150 H         1 <0>         0.0929
     88 H49         4.3214   -7.4617   12.5677 H         1 <0>         0.1277
     89 H50         2.9259   -7.3813   14.5949 H         1 <0>         0.1222
     90 H51         1.6778   -9.3796   15.3105 H         1 <0>         0.1217
     91 H52         1.8247  -11.4582   13.9986 H         1 <0>         0.1220
     92 H53         3.2136  -11.5362   11.9669 H         1 <0>         0.1194
@<TRIPOS>BOND
     1    1    2 1
     2    1   45 1
     3    1   46 1
     4    1   47 1
     5    2    9 1
     6    2   13 1
     7    2    3 1
     8    3    4 1
     9    3   48 1
    10    3   49 1
    11    4    5 1
    12    4   50 1
    13    4   51 1
    14    5    6 1
    15    5   20 1
    16    5    7 1
    17    7    8 1
    18    7    9 1
    19    7   16 1
    20    9   10 1
    21    9   11 1
    22   11   12 1
    23   11   52 1
    24   11   53 1
    25   12   13 1
    26   12   54 1
    27   12   55 1
    28   13   14 1
    29   13   15 1
    30   15   56 1
    31   16   17 1
    32   16   27 1
    33   16   57 1
    34   17   18 1
    35   17   58 1
    36   17   59 1
    37   18   19 1
    38   18   25 1
    39   18   20 1
    40   20   21 1
    41   20   26 1
    42   21   22 1
    43   21   60 1
    44   21   61 1
    45   22   23 1
    46   22   62 1
    47   22   63 1
    48   23   24 2
    49   23   25 1
    50   25   64 1
    51   25   65 1
    52   26   66 1
    53   26   67 1
    54   26   68 1
    55   27   28 1
    56   27   69 1
    57   27   70 1
    58   28   29 1
    59   28   71 1
    60   28   72 1
    61   29   30 1
    62   29   73 1
    63   29   74 1
    64   30   31 1
    65   30   75 1
    66   30   76 1
    67   31   32 1
    68   31   77 1
    69   31   78 1
    70   32   33 1
    71   32   79 1
    72   32   80 1
    73   33   34 1
    74   33   81 1
    75   33   82 1
    76   34   35 2
    77   34   36 am
    78   36   37 1
    79   36   38 1
    80   37   83 1
    81   37   84 1
    82   37   85 1
    83   38   39 1
    84   38   86 1
    85   38   87 1
    86   39   44 ar
    87   39   40 ar
    88   40   41 ar
    89   40   88 1
    90   41   42 ar
    91   41   89 1
    92   42   43 ar
    93   42   90 1
    94   43   44 ar
    95   43   91 1
    96   44   92 1
@<TRIPOS>MOLECULE
CHEMBL157703
   40    42     0     0     0
SMALL
USER_CHARGES

@<TRIPOS>ATOM
      1 C1         -0.0184    1.5028    0.0103 C.3       1 <0>        -0.1069
      2 C2          0.0021   -0.0041    0.0020 C.ar      1 <0>        -0.1965
      3 C3          0.0059   -0.6950   -1.2047 C.ar      1 <0>         0.2381
      4 C4          0.0245   -2.1055   -1.2073 C.ar      1 <0>        -0.1543
      5 C5          0.0451   -2.8124    0.0005 C.ar      1 <0>        -0.0148
      6 C6          0.0445   -2.1144    1.1948 C.ar      1 <0>        -0.1236
      7 C7          0.0228   -0.7023    1.1912 C.ar      1 <0>         0.2768
      8 N1          0.0123   -0.0447    2.4190 N.pl3     1 <0>        -0.7288
      9 C8         -0.6270   -0.7098    3.5613 C.3       1 <0>         0.2109
     10 C9         -0.2259   -2.1602    3.6033 C.2       1 <0>        -0.1725
     11 C10         0.0727   -2.8181    2.4932 C.2       1 <0>        -0.0589
     12 C11         0.4557   -4.2742    2.5581 C.3       1 <0>        -0.1189
     13 C12        -2.1472   -0.6071    3.4230 C.3       1 <0>        -0.1587
     14 C13        -0.1899   -0.0244    4.8575 C.3       1 <0>        -0.1534
     15 C14         0.0224   -2.8114   -2.4885 C.2       1 <0>        -0.0684
     16 C15         0.0059   -2.0805   -3.6323 C.2       1 <0>        -0.1565
     17 C16        -0.0088   -0.6724   -3.5749 C.2       1 <0>         0.5407
     18 N2         -0.0089   -0.0133   -2.4034 N.am      1 <0>        -0.6233
     19 O1         -0.0214   -0.0358   -4.6145 O.2       1 <0>        -0.5213
     20 C17         0.0388   -4.3175   -2.5376 C.3       1 <0>         0.5078
     21 F1          0.0332   -4.7407   -3.8711 F         1 <0>        -0.1676
     22 F2          1.1914   -4.7923   -1.9025 F         1 <0>        -0.1669
     23 F3         -1.0929   -4.8177   -1.8848 F         1 <0>        -0.1669
     24 H1          1.0042    1.8801    0.0026 H         1 <0>         0.0719
     25 H2         -0.5455    1.8639   -0.8728 H         1 <0>         0.0649
     26 H3         -0.5286    1.8543    0.9071 H         1 <0>         0.0745
     27 H4          0.0609   -3.8923    0.0001 H         1 <0>         0.1392
     28 H5          0.4176    0.8310    2.5171 H         1 <0>         0.4067
     29 H6         -0.1894   -2.6738    4.5526 H         1 <0>         0.1273
     30 H7          1.5335   -4.3606    2.6957 H         1 <0>         0.0738
     31 H8         -0.0566   -4.7477    3.3956 H         1 <0>         0.0712
     32 H9          0.1673   -4.7675    1.6299 H         1 <0>         0.0675
     33 H10        -2.4613   -1.0904    2.4979 H         1 <0>         0.0587
     34 H11        -2.6233   -1.1004    4.2704 H         1 <0>         0.0694
     35 H12        -2.4401    0.4426    3.4022 H         1 <0>         0.0616
     36 H13        -0.4882    1.0237    4.8328 H         1 <0>         0.0646
     37 H14        -0.6637   -0.5170    5.7066 H         1 <0>         0.0772
     38 H15         0.8935   -0.0916    4.9567 H         1 <0>         0.0649
     39 H16         0.0044   -2.5799   -4.5898 H         1 <0>         0.1705
     40 H17        -0.0199    0.9566   -2.4011 H         1 <0>         0.4196
@<TRIPOS>BOND
     1    1    2 1
     2    1   24 1
     3    1   25 1
     4    1   26 1
     5    2    7 ar
     6    2    3 ar
     7    3   18 1
     8    3    4 ar
     9    4    5 ar
    10    4   15 1
    11    5    6 ar
    12    5   27 1
    13    6   11 1
    14    6    7 ar
    15    7    8 1
    16    8    9 1
    17    8   28 1
    18    9   10 1
    19    9   13 1
    20    9   14 1
    21   10   11 2
    22   10   29 1
    23   11   12 1
    24   12   30 1
    25   12   31 1
    26   12   32 1
    27   13   33 1
    28   13   34 1
    29   13   35 1
    30   14   36 1
    31   14   37 1
    32   14   38 1
    33   15   16 2
    34   15   20 1
    35   16   17 1
    36   16   39 1
    37   17   18 am
    38   17   19 2
    39   18   40 1
    40   20   21 1
    41   20   22 1
    42   20   23 1
@<TRIPOS>MOLECULE
CHEMBL246341
   53    57     0     0     0
SMALL
USER_CHARGES

@<TRIPOS>ATOM
      1 C1         -0.0187    1.5258    0.0104 C.3       1 <0>        -0.1329
      2 C2          0.0021   -0.0041    0.0020 C.3       1 <0>        -0.0573
      3 C3         -1.4159   -0.5370    0.0713 C.3       1 <0>        -0.1033
      4 C4         -2.0800    0.0969    1.3045 C.3       1 <0>        -0.1168
      5 C5         -1.2999   -0.2067    2.5798 C.3       1 <0>        -0.0612
      6 H1         -1.3240   -1.2850    2.7375 H         1 <0>         0.0667
      7 C6          0.1692    0.2192    2.4649 C.3       1 <0>        -0.0692
      8 H2          0.2378    1.2991    2.3335 H         1 <0>         0.0862
      9 C7          0.7516   -0.5266    1.2572 C.3       1 <0>        -0.0828
     10 H3          0.6146   -1.6029    1.3624 H         1 <0>         0.0775
     11 C8          2.2062   -0.1890    0.9118 C.3       1 <0>        -0.1133
     12 C9          2.3047   -0.5707   -0.5904 C.3       1 <0>        -0.1570
     13 C10         0.8633   -0.5025   -1.1538 C.3       1 <0>         0.1102
     14 H4          0.5343   -1.4922   -1.4706 H         1 <0>         0.0565
     15 O1          0.8022    0.4145   -2.2481 O.3       1 <0>        -0.5598
     16 C11         0.8969   -0.2037    3.7470 C.3       1 <0>        -0.0835
     17 C12         0.2277    0.4745    4.9140 C.2       1 <0>        -0.1478
     18 C13        -1.0318    0.7641    4.8980 C.2       1 <0>        -0.1042
     19 C14        -1.9567    0.4505    3.7723 C.3       1 <0>         0.0189
     20 C15        -3.0592   -0.4641    4.3420 C.3       1 <0>        -0.0997
     21 C16        -3.7809    0.3105    5.4497 C.3       1 <0>        -0.1615
     22 C17        -2.8143    0.6281    6.5882 C.3       1 <0>         0.1171
     23 H5         -2.4398   -0.3042    7.0109 H         1 <0>         0.0553
     24 C18        -1.6821    1.4779    6.0739 C.3       1 <0>        -0.0436
     25 H6         -0.9548    1.6146    6.8742 H         1 <0>         0.0809
     26 C19        -2.1754    2.8324    5.5650 C.3       1 <0>        -0.0807
     27 C20        -2.7318    2.7470    4.1803 C.2       1 <0>        -0.1451
     28 C21        -2.6178    1.7538    3.3909 C.2       1 <0>        -0.1474
     29 O2         -3.5069    1.3587    7.6024 O.3       1 <0>        -0.5669
     30 H7          1.0039    1.9031    0.0027 H         1 <0>         0.0532
     31 H8         -0.5459    1.8868   -0.8726 H         1 <0>         0.0583
     32 H9         -0.5289    1.8773    0.9072 H         1 <0>         0.0612
     33 H10        -1.9621   -0.2571   -0.8295 H         1 <0>         0.0662
     34 H11        -1.4001   -1.6220    0.1749 H         1 <0>         0.0619
     35 H12        -2.1297    1.1770    1.1662 H         1 <0>         0.0742
     36 H13        -3.0922   -0.2949    1.4046 H         1 <0>         0.0620
     37 H14         2.3993    0.8745    1.0530 H         1 <0>         0.0706
     38 H15         2.8935   -0.7892    1.5081 H         1 <0>         0.0660
     39 H16         2.9455    0.1379   -1.1153 H         1 <0>         0.0722
     40 H17         2.6996   -1.5813   -0.6945 H         1 <0>         0.0665
     41 H18         1.3312    0.1497   -3.0131 H         1 <0>         0.3746
     42 H19         0.8346   -1.2855    3.8653 H         1 <0>         0.0731
     43 H20         1.9420    0.1013    3.6943 H         1 <0>         0.0724
     44 H21         0.8148    0.7246    5.7853 H         1 <0>         0.1074
     45 H22        -3.7654   -0.7262    3.5541 H         1 <0>         0.0704
     46 H23        -2.6123   -1.3686    4.7546 H         1 <0>         0.0667
     47 H24        -4.1758    1.2408    5.0413 H         1 <0>         0.0828
     48 H25        -4.6049   -0.2912    5.8330 H         1 <0>         0.0612
     49 H26        -2.9513    3.2011    6.2359 H         1 <0>         0.0840
     50 H27        -1.3431    3.5363    5.5690 H         1 <0>         0.0721
     51 H28        -3.2594    3.6168    3.8177 H         1 <0>         0.1003
     52 H29        -3.0498    1.8532    2.4061 H         1 <0>         0.1104
     53 H30        -4.2573    0.8845    7.9858 H         1 <0>         0.3772
@<TRIPOS>BOND
     1    1    2 1
     2    1   30 1
     3    1   31 1
     4    1   32 1
     5    2    9 1
     6    2   13 1
     7    2    3 1
     8    3    4 1
     9    3   33 1
    10    3   34 1
    11    4    5 1
    12    4   35 1
    13    4   36 1
    14    5    6 1
    15    5   19 1
    16    5    7 1
    17    7    8 1
    18    7    9 1
    19    7   16 1
    20    9   10 1
    21    9   11 1
    22   11   12 1
    23   11   37 1
    24   11   38 1
    25   12   13 1
    26   12   39 1
    27   12   40 1
    28   13   14 1
    29   13   15 1
    30   15   41 1
    31   16   17 1
    32   16   42 1
    33   16   43 1
    34   17   18 2
    35   17   44 1
    36   18   24 1
    37   18   19 1
    38   19   28 1
    39   19   20 1
    40   20   21 1
    41   20   45 1
    42   20   46 1
    43   21   22 1
    44   21   47 1
    45   21   48 1
    46   22   23 1
    47   22   24 1
    48   22   29 1
    49   24   25 1
    50   24   26 1
    51   26   27 1
    52   26   49 1
    53   26   50 1
    54   27   28 2
    55   27   51 1
    56   28   52 1
    57   29   53 1
@<TRIPOS>MOLECULE
CHEMBL250897
   40    42     0     0     0
SMALL
USER_CHARGES

@<TRIPOS>ATOM
      1 C1          0.4909    1.5286    0.4441 C.3       1 <0>        -0.1496
      2 C2          0.2758    0.0198    0.3088 C.3       1 <0>        -0.1331
      3 C3          0.6498   -0.4238   -1.1069 C.3       1 <0>         0.1184
      4 H1          0.0824    0.1529   -1.8373 H         1 <0>         0.1083
      5 C4          0.3529   -1.9204   -1.2798 C.3       1 <0>         0.0539
      6 O1          1.1500   -2.6571   -0.3496 O.3       1 <0>        -0.2966
      7 C5          2.4770   -2.3781   -0.2906 C.ar      1 <0>         0.1370
      8 C6          2.9739   -1.1732   -0.7659 C.ar      1 <0>         0.1065
      9 C7          4.3338   -0.8948   -0.6960 C.ar      1 <0>        -0.0779
     10 C8          5.2129   -1.8115   -0.1561 C.ar      1 <0>        -0.1480
     11 C9          4.7420   -3.0267    0.3243 C.ar      1 <0>         0.1866
     12 C10         3.3649   -3.3161    0.2593 C.ar      1 <0>        -0.1053
     13 C11         2.8846   -4.5992    0.7697 C.2       1 <0>        -0.0710
     14 C12         3.7868   -5.4690    1.2908 C.2       1 <0>        -0.1443
     15 C13         5.1551   -5.1325    1.3342 C.2       1 <0>         0.5386
     16 O2          5.9480   -5.9290    1.8066 O.2       1 <0>        -0.5210
     17 N1          5.6081   -3.9563    0.8667 N.am      1 <0>        -0.6213
     18 H2          6.5564   -3.7572    0.9114 H         1 <0>         0.4226
     19 C14         1.4195   -4.9482    0.7186 C.3       1 <0>         0.5162
     20 F1          1.2240   -6.2212    1.2649 F         1 <0>        -0.1755
     21 F2          0.6902   -4.0080    1.4544 F         1 <0>        -0.1585
     22 F3          0.9840   -4.9395   -0.6109 F         1 <0>        -0.1624
     23 N2          2.0929   -0.2281   -1.3273 N.pl3     1 <0>        -0.6224
     24 C15         2.5931    0.9089   -2.1040 C.3       1 <0>         0.0952
     25 C16         2.8130    0.4778   -3.5554 C.3       1 <0>         0.4246
     26 F4          1.6183   -0.0298   -4.0772 F         1 <0>        -0.1824
     27 F5          3.2212    1.5810   -4.3128 F         1 <0>        -0.1820
     28 F6          3.8006   -0.5119   -3.6034 F         1 <0>        -0.1787
     29 H3          1.5534    1.7537    0.3523 H         1 <0>         0.0546
     30 H4         -0.0594    2.0460   -0.3418 H         1 <0>         0.0540
     31 H5          0.1319    1.8609    1.4182 H         1 <0>         0.0591
     32 H6          0.9030   -0.5028    1.0310 H         1 <0>         0.0729
     33 H7         -0.7712   -0.2164    0.4988 H         1 <0>         0.0797
     34 H8         -0.7030   -2.1083   -1.0856 H         1 <0>         0.1248
     35 H9          0.6001   -2.2270   -2.2962 H         1 <0>         0.0763
     36 H10         4.7063    0.0481   -1.0682 H         1 <0>         0.1379
     37 H11         6.2675   -1.5840   -0.1074 H         1 <0>         0.1447
     38 H12         3.4550   -6.4226    1.6741 H         1 <0>         0.1719
     39 H13         1.8648    1.7193   -2.0720 H         1 <0>         0.1260
     40 H14         3.5368    1.2516   -1.6797 H         1 <0>         0.1201
@<TRIPOS>BOND
     1    1    2 1
     2    1   29 1
     3    1   30 1
     4    1   31 1
     5    2    3 1
     6    2   32 1
     7    2   33 1
     8    3    4 1
     9    3   23 1
    10    3    5 1
    11    5    6 1
    12    5   34 1
    13    5   35 1
    14    6    7 1
    15    7   12 ar
    16    7    8 ar
    17    8    9 ar
    18    8   23 1
    19    9   10 ar
    20    9   36 1
    21   10   11 ar
    22   10   37 1
    23   11   17 1
    24   11   12 ar
    25   12   13 1
    26   13   14 2
    27   13   19 1
    28   14   15 1
    29   14   38 1
    30   15   16 2
    31   15   17 am
    32   17   18 1
    33   19   20 1
    34   19   21 1
    35   19   22 1
    36   23   24 1
    37   24   25 1
    38   24   39 1
    39   24   40 1
    40   25   26 1
    41   25   27 1
    42   25   28 1
@<TRIPOS>MOLECULE
CHEMBL45083
   61    65     0     0     0
SMALL
USER_CHARGES

@<TRIPOS>ATOM
      1 C1         -0.0187    1.5303    0.0105 C.3       1 <0>        -0.1362
      2 C2          0.0021   -0.0041    0.0020 C.3       1 <0>        -0.0256
      3 C3         -1.3942   -0.5573    0.0377 C.3       1 <0>        -0.1002
      4 C4         -2.0167   -0.4282    1.4344 C.3       1 <0>        -0.1090
      5 C5         -1.1292    0.2647    2.4485 C.3       1 <0>        -0.0698
      6 C6          0.2729   -0.3123    2.5249 C.3       1 <0>        -0.0580
      7 C7          0.8347   -0.5930    1.1529 C.3       1 <0>        -0.0828
      8 C8          2.2316   -0.0354    0.8457 C.3       1 <0>        -0.1139
      9 C9          2.3276   -0.2089   -0.6957 C.3       1 <0>        -0.1459
     10 C10         0.8741   -0.3895   -1.2107 C.3       1 <0>         0.2393
     11 C11         0.6534   -1.7722   -1.6378 C.1       1 <0>        -0.2066
     12 C12         0.4765   -2.8811   -1.9804 C.1       1 <0>        -0.1793
     13 O1          0.6194    0.5186   -2.2844 O.3       1 <0>        -0.5403
     14 C13         0.2515   -1.6515    3.2827 C.3       1 <0>        -0.1141
     15 C14        -0.3126   -1.4515    4.6833 C.3       1 <0>        -0.1143
     16 C15        -1.7587   -0.9576    4.5790 C.3       1 <0>        -0.0657
     17 H1         -2.3525   -1.7092    4.0452 H         1 <0>         0.0796
     18 C16        -1.8097    0.3597    3.8171 C.3       1 <0>        -0.0453
     19 C17        -3.2856    0.7423    3.5848 C.3       1 <0>        -0.0486
     20 C18        -3.9800    0.7459    4.9212 C.2       1 <0>        -0.1951
     21 C19        -5.1448    1.4313    5.3055 C.2       1 <0>        -0.0740
     22 C20        -5.3679    1.1160    6.5969 C.2       1 <0>        -0.5780
     23 O2         -4.3995    0.2748    7.0041 O.3       1 <0>        -0.1173
     24 C21        -3.5475    0.0521    5.9938 C.2       1 <0>         0.0442
     25 C22        -2.3084   -0.8031    6.0026 C.3       1 <0>        -0.0444
     26 S1         -6.7017    1.7062    7.5859 S.o2      1 <0>         2.5321
     27 O3         -6.2188    1.6436    8.9208 O.2       1 <0>        -0.9229
     28 O4         -7.0616    2.9514    7.0034 O.2       1 <0>        -0.9186
     29 C23        -8.0316    0.4962    7.3451 C.3       1 <0>        -0.6455
     30 C24        -1.1347    1.4764    4.6215 C.3       1 <0>        -0.1469
     31 H2          0.9670    1.9086   -0.2605 H         1 <0>         0.0596
     32 H3         -0.7554    1.8877   -0.7091 H         1 <0>         0.0609
     33 H4         -0.2826    1.8846    1.0069 H         1 <0>         0.0627
     34 H5         -2.0228   -0.0164   -0.6871 H         1 <0>         0.0624
     35 H6         -1.4161   -1.6164   -0.2461 H         1 <0>         0.0604
     36 H7         -2.9597    0.1310    1.3357 H         1 <0>         0.0650
     37 H8         -2.2754   -1.4294    1.8020 H         1 <0>         0.0582
     38 H9         -1.0412    1.3244    2.1575 H         1 <0>         0.0764
     39 H10         0.9373    0.3797    3.0598 H         1 <0>         0.0760
     40 H11         0.8872   -1.6988    1.0357 H         1 <0>         0.0721
     41 H12         2.3285    1.0053    1.1376 H         1 <0>         0.0758
     42 H13         2.9976   -0.6405    1.3403 H         1 <0>         0.0664
     43 H14         2.7728    0.6772   -1.1452 H         1 <0>         0.0816
     44 H15         2.9189   -1.0927   -0.9355 H         1 <0>         0.0700
     45 H16         0.3182   -3.8728   -2.2868 H         1 <0>         0.2184
     46 H17         1.1337    0.3377   -3.0831 H         1 <0>         0.3769
     47 H18        -0.3692   -2.3622    2.7367 H         1 <0>         0.0634
     48 H19         1.2681   -2.0391    3.3499 H         1 <0>         0.0633
     49 H20        -0.3007   -2.4070    5.2144 H         1 <0>         0.0646
     50 H21         0.2954   -0.7379    5.2312 H         1 <0>         0.0696
     51 H22        -3.3430    1.7295    3.1367 H         1 <0>         0.0802
     52 H23        -3.7617    0.0038    2.9430 H         1 <0>         0.0841
     53 H24        -5.7446    2.0840    4.6898 H         1 <0>         0.1665
     54 H25        -2.5637   -1.7915    6.3982 H         1 <0>         0.0902
     55 H26        -1.5568   -0.3563    6.6514 H         1 <0>         0.0960
     56 H27        -7.6919   -0.4867    7.6715 H         1 <0>         0.1348
     57 H28        -8.9025    0.7923    7.9299 H         1 <0>         0.1390
     58 H29        -8.2995    0.4560    6.2893 H         1 <0>         0.1337
     59 H30        -1.2385    2.4217    4.0888 H         1 <0>         0.0578
     60 H31        -1.6085    1.5568    5.5999 H         1 <0>         0.0560
     61 H32        -0.0771    1.2449    4.7480 H         1 <0>         0.0613
@<TRIPOS>BOND
     1    1    2 1
     2    1   31 1
     3    1   32 1
     4    1   33 1
     5    2    7 1
     6    2   10 1
     7    2    3 1
     8    3    4 1
     9    3   34 1
    10    3   35 1
    11    4    5 1
    12    4   36 1
    13    4   37 1
    14    5   18 1
    15    5    6 1
    16    5   38 1
    17    6    7 1
    18    6   14 1
    19    6   39 1
    20    7    8 1
    21    7   40 1
    22    8    9 1
    23    8   41 1
    24    8   42 1
    25    9   10 1
    26    9   43 1
    27    9   44 1
    28   10   11 1
    29   10   13 1
    30   11   12 3
    31   12   45 1
    32   13   46 1
    33   14   15 1
    34   14   47 1
    35   14   48 1
    36   15   16 1
    37   15   49 1
    38   15   50 1
    39   16   17 1
    40   16   25 1
    41   16   18 1
    42   18   19 1
    43   18   30 1
    44   19   20 1
    45   19   51 1
    46   19   52 1
    47   20   24 2
    48   20   21 1
    49   21   22 2
    50   21   53 1
    51   22   23 1
    52   22   26 1
    53   23   24 1
    54   24   25 1
    55   25   54 1
    56   25   55 1
    57   26   27 2
    58   26   28 2
    59   26   29 1
    60   29   56 1
    61   29   57 1
    62   29   58 1
    63   30   59 1
    64   30   60 1
    65   30   61 1
@<TRIPOS>MOLECULE
CHEMBL45083__1
   61    65     0     0     0
SMALL
USER_CHARGES

@<TRIPOS>ATOM
      1 C1         -0.0190    1.5508    0.0106 C.3       1 <0>        -0.1334
      2 C2          0.0021   -0.0041    0.0020 C.3       1 <0>        -0.0302
      3 C3         -1.4426   -0.4239   -0.0483 C.3       1 <0>        -0.1011
      4 C4         -1.7041   -1.8317    0.4771 C.3       1 <0>        -0.1188
      5 C5         -1.1764   -1.9048    1.9132 C.3       1 <0>        -0.0656
      6 C6          0.3397   -1.7531    1.8653 C.3       1 <0>        -0.0701
      7 C7          0.7563   -0.4194    1.2682 C.3       1 <0>        -0.0691
      8 C8          2.2361   -0.5193    0.8172 C.3       1 <0>        -0.1186
      9 C9          2.1676   -0.9752   -0.6520 C.3       1 <0>        -0.1461
     10 C10         0.8481   -0.3989   -1.2072 C.3       1 <0>         0.2534
     11 C11         0.1961   -1.3823   -2.0791 C.1       1 <0>        -0.2007
     12 C12        -0.3257   -2.1692   -2.7768 C.1       1 <0>        -0.1831
     13 O1          1.1463    0.7794   -1.9779 O.3       1 <0>        -0.5464
     14 C13         0.9553   -2.9317    1.1156 C.3       1 <0>        -0.1191
     15 C14         0.6020   -4.2250    1.8541 C.3       1 <0>        -0.1170
     16 C15        -0.9159   -4.4080    1.8983 C.3       1 <0>        -0.0650
     17 H1         -1.2933   -4.4984    0.8733 H         1 <0>         0.0787
     18 C16        -1.5922   -3.2184    2.5757 C.3       1 <0>        -0.0413
     19 C17        -3.1202   -3.3634    2.4330 C.3       1 <0>        -0.0488
     20 C18        -3.5199   -4.7383    2.8995 C.2       1 <0>        -0.1944
     21 C19        -4.7896   -5.1920    3.2988 C.2       1 <0>        -0.0756
     22 C20        -4.6512   -6.4943    3.6172 C.2       1 <0>        -0.5777
     23 O2         -3.3647   -6.8428    3.4368 O.3       1 <0>        -0.1162
     24 C21        -2.6743   -5.7836    2.9958 C.2       1 <0>         0.0435
     25 C22        -1.2100   -5.7119    2.6532 C.3       1 <0>        -0.0452
     26 S1         -5.9402   -7.5607    4.1702 S.o2      1 <0>         2.5321
     27 O3         -5.2808   -8.5600    4.9356 O.2       1 <0>        -0.9228
     28 O4         -6.8921   -6.6959    4.7746 O.2       1 <0>        -0.9186
     29 C23        -6.6275   -8.2856    2.6560 C.3       1 <0>        -0.6455
     30 C24        -1.2401   -3.1730    4.0666 C.3       1 <0>        -0.1460
     31 H2          1.0036    1.9280    0.0028 H         1 <0>         0.0613
     32 H3         -0.5462    1.9118   -0.8725 H         1 <0>         0.0589
     33 H4         -0.5292    1.9023    0.9074 H         1 <0>         0.0487
     34 H5         -2.0114    0.2754    0.5927 H         1 <0>         0.0597
     35 H6         -1.8530   -0.3123   -1.0478 H         1 <0>         0.0643
     36 H7         -2.7840   -2.0046    0.4686 H         1 <0>         0.0646
     37 H8         -1.2195   -2.5783   -0.1421 H         1 <0>         0.0710
     38 H9         -1.5956   -1.0700    2.4860 H         1 <0>         0.0727
     39 H10         0.7177   -1.7822    2.9022 H         1 <0>         0.0691
     40 H11         0.6525    0.3774    2.0395 H         1 <0>         0.0814
     41 H12         2.7241    0.4590    0.8865 H         1 <0>         0.0674
     42 H13         2.7869   -1.2369    1.4256 H         1 <0>         0.0752
     43 H14         3.0116   -0.5672   -1.2118 H         1 <0>         0.0732
     44 H15         2.1681   -2.0598   -0.7250 H         1 <0>         0.0808
     45 H16        -0.7924   -2.8730   -3.4008 H         1 <0>         0.2166
     46 H17         1.6822    0.6096   -2.7647 H         1 <0>         0.3741
     47 H18         0.5692   -2.9848    0.1009 H         1 <0>         0.0703
     48 H19         2.0419   -2.8354    1.0895 H         1 <0>         0.0700
     49 H20         1.0490   -5.0673    1.3208 H         1 <0>         0.0636
     50 H21         1.0082   -4.1906    2.8617 H         1 <0>         0.0676
     51 H22        -3.6153   -2.6128    3.0460 H         1 <0>         0.0793
     52 H23        -3.4139   -3.2535    1.3924 H         1 <0>         0.0843
     53 H24        -5.6987   -4.6104    3.3400 H         1 <0>         0.1665
     54 H25        -0.9529   -6.5619    2.0129 H         1 <0>         0.0894
     55 H26        -0.6112   -5.7689    3.5599 H         1 <0>         0.0965
     56 H27        -5.8472   -8.8355    2.1298 H         1 <0>         0.1348
     57 H28        -7.4395   -8.9652    2.9146 H         1 <0>         0.1392
     58 H29        -7.0087   -7.4917    2.0137 H         1 <0>         0.1337
     59 H30        -1.7678   -2.3447    4.5395 H         1 <0>         0.0577
     60 H31        -1.5366   -4.1096    4.5387 H         1 <0>         0.0557
     61 H32        -0.1654   -3.0323    4.1820 H         1 <0>         0.0614
@<TRIPOS>BOND
     1    1    2 1
     2    1   31 1
     3    1   32 1
     4    1   33 1
     5    2    7 1
     6    2   10 1
     7    2    3 1
     8    3    4 1
     9    3   34 1
    10    3   35 1
    11    4    5 1
    12    4   36 1
    13    4   37 1
    14    5   18 1
    15    5    6 1
    16    5   38 1
    17    6    7 1
    18    6   14 1
    19    6   39 1
    20    7    8 1
    21    7   40 1
    22    8    9 1
    23    8   41 1
    24    8   42 1
    25    9   10 1
    26    9   43 1
    27    9   44 1
    28   10   11 1
    29   10   13 1
    30   11   12 3
    31   12   45 1
    32   13   46 1
    33   14   15 1
    34   14   47 1
    35   14   48 1
    36   15   16 1
    37   15   49 1
    38   15   50 1
    39   16   17 1
    40   16   25 1
    41   16   18 1
    42   18   19 1
    43   18   30 1
    44   19   20 1
    45   19   51 1
    46   19   52 1
    47   20   24 2
    48   20   21 1
    49   21   22 2
    50   21   53 1
    51   22   23 1
    52   22   26 1
    53   23   24 1
    54   24   25 1
    55   25   54 1
    56   25   55 1
    57   26   27 2
    58   26   28 2
    59   26   29 1
    60   29   56 1
    61   29   57 1
    62   29   58 1
    63   30   59 1
    64   30   60 1
    65   30   61 1
@<TRIPOS>MOLECULE
CHEMBL45083__2
   61    65     0     0     0
SMALL
USER_CHARGES

@<TRIPOS>ATOM
      1 C1         -0.0187    1.5311    0.0105 C.3       1 <0>        -0.1358
      2 C2          0.0021   -0.0041    0.0020 C.3       1 <0>        -0.0251
      3 C3         -1.3970   -0.5507    0.0411 C.3       1 <0>        -0.1021
      4 C4         -2.0082   -0.4515    1.4454 C.3       1 <0>        -0.1105
      5 C5         -1.1361    0.2801    2.4450 C.3       1 <0>        -0.0718
      6 C6          0.2809   -0.2833    2.5141 C.3       1 <0>        -0.0658
      7 C7          0.8387   -0.5839    1.1587 C.3       1 <0>        -0.0765
      8 C8          2.2397   -0.0469    0.8325 C.3       1 <0>        -0.1120
      9 C9          2.3247   -0.2337   -0.7073 C.3       1 <0>        -0.1468
     10 C10         0.8662   -0.3981   -1.2117 C.3       1 <0>         0.2402
     11 C11         0.6322   -1.7794   -1.6383 C.1       1 <0>        -0.2072
     12 C12         0.4447   -2.8868   -1.9803 C.1       1 <0>        -0.1796
     13 O1          0.6160    0.5089   -2.2876 O.3       1 <0>        -0.5406
     14 C13         1.1522    0.6828    3.3180 C.3       1 <0>        -0.1109
     15 C14         0.5436    0.8477    4.7130 C.3       1 <0>        -0.1155
     16 C15        -0.6704   -0.0656    4.8841 C.3       1 <0>        -0.0678
     17 H1         -0.3526   -1.1087    4.7561 H         1 <0>         0.0813
     18 C16        -1.7513    0.2550    3.8521 C.3       1 <0>        -0.0498
     19 C17        -2.8323   -0.8360    3.9142 C.3       1 <0>        -0.0428
     20 C18        -3.3154   -0.9125    5.3409 C.2       1 <0>        -0.1970
     21 C19        -4.5460   -1.3850    5.8266 C.2       1 <0>        -0.0746
     22 C20        -4.5081   -1.2470    7.1670 C.2       1 <0>        -0.5784
     23 O2         -3.3176   -0.7221    7.5084 O.3       1 <0>        -0.1166
     24 C21        -2.5920   -0.5043    6.4038 C.2       1 <0>         0.0442
     25 C22        -1.2134    0.0972    6.3097 C.3       1 <0>        -0.0448
     26 S1         -5.8015   -1.6789    8.2828 S.o2      1 <0>         2.5322
     27 O3         -5.6020   -0.8392    9.4117 O.2       1 <0>        -0.9228
     28 O4         -6.9916   -1.5858    7.5120 O.2       1 <0>        -0.9187
     29 C23        -5.4775   -3.4080    8.7254 C.3       1 <0>        -0.6456
     30 C24        -2.3846    1.6196    4.1346 C.3       1 <0>        -0.1447
     31 H2          0.9724    1.9093   -0.2400 H         1 <0>         0.0588
     32 H3         -0.7404    1.8887   -0.7240 H         1 <0>         0.0604
     33 H4         -0.3030    1.8851    1.0014 H         1 <0>         0.0631
     34 H5         -2.0297    0.0123   -0.6636 H         1 <0>         0.0623
     35 H6         -1.4307   -1.6025   -0.2672 H         1 <0>         0.0610
     36 H7         -2.9807    0.0543    1.3715 H         1 <0>         0.0628
     37 H8         -2.2020   -1.4718    1.8066 H         1 <0>         0.0627
     38 H9         -1.0908    1.3449    2.1823 H         1 <0>         0.0831
     39 H10         0.2404   -1.2361    3.0768 H         1 <0>         0.0692
     40 H11         0.8779   -1.6908    1.0509 H         1 <0>         0.0671
     41 H12         2.3508    0.9953    1.1116 H         1 <0>         0.0781
     42 H13         3.0018   -0.6542    1.3281 H         1 <0>         0.0662
     43 H14         2.7800    0.6428   -1.1663 H         1 <0>         0.0814
     44 H15         2.9017   -1.1264   -0.9449 H         1 <0>         0.0698
     45 H16         0.2770   -3.8771   -2.2861 H         1 <0>         0.2184
     46 H17         1.1269    0.3214   -3.0869 H         1 <0>         0.3769
     47 H18         2.1597    0.2785    3.4078 H         1 <0>         0.0665
     48 H19         1.1855    1.6506    2.8207 H         1 <0>         0.0673
     49 H20         1.2982    0.5820    5.4586 H         1 <0>         0.0649
     50 H21         0.2574    1.8869    4.8620 H         1 <0>         0.0679
     51 H22        -3.6623   -0.5787    3.2618 H         1 <0>         0.0830
     52 H23        -2.4062   -1.7965    3.6293 H         1 <0>         0.0804
     53 H24        -5.3641   -1.7802    5.2424 H         1 <0>         0.1666
     54 H25        -0.5505   -0.4280    7.0061 H         1 <0>         0.0899
     55 H26        -1.2447    1.1486    6.5874 H         1 <0>         0.0964
     56 H27        -4.4970   -3.4852    9.1953 H         1 <0>         0.1348
     57 H28        -6.2420   -3.7545    9.4208 H         1 <0>         0.1390
     58 H29        -5.4987   -4.0234    7.8259 H         1 <0>         0.1336
     59 H30        -3.1596    1.8206    3.3950 H         1 <0>         0.0585
     60 H31        -2.8258    1.6161    5.1314 H         1 <0>         0.0555
     61 H32        -1.6194    2.3939    4.0787 H         1 <0>         0.0604
@<TRIPOS>BOND
     1    1    2 1
     2    1   31 1
     3    1   32 1
     4    1   33 1
     5    2    7 1
     6    2   10 1
     7    2    3 1
     8    3    4 1
     9    3   34 1
    10    3   35 1
    11    4    5 1
    12    4   36 1
    13    4   37 1
    14    5   18 1
    15    5    6 1
    16    5   38 1
    17    6    7 1
    18    6   14 1
    19    6   39 1
    20    7    8 1
    21    7   40 1
    22    8    9 1
    23    8   41 1
    24    8   42 1
    25    9   10 1
    26    9   43 1
    27    9   44 1
    28   10   11 1
    29   10   13 1
    30   11   12 3
    31   12   45 1
    32   13   46 1
    33   14   15 1
    34   14   47 1
    35   14   48 1
    36   15   16 1
    37   15   49 1
    38   15   50 1
    39   16   17 1
    40   16   25 1
    41   16   18 1
    42   18   19 1
    43   18   30 1
    44   19   20 1
    45   19   51 1
    46   19   52 1
    47   20   24 2
    48   20   21 1
    49   21   22 2
    50   21   53 1
    51   22   23 1
    52   22   26 1
    53   23   24 1
    54   24   25 1
    55   25   54 1
    56   25   55 1
    57   26   27 2
    58   26   28 2
    59   26   29 1
    60   29   56 1
    61   29   57 1
    62   29   58 1
    63   30   59 1
    64   30   60 1
    65   30   61 1
@<TRIPOS>MOLECULE
CHEMBL45083__3
   61    65     0     0     0
SMALL
USER_CHARGES

@<TRIPOS>ATOM
      1 C1         -0.0187    1.5258    0.0104 C.3       1 <0>        -0.1355
      2 C2          0.0021   -0.0041    0.0020 C.3       1 <0>        -0.0320
      3 C3         -1.4131   -0.5206   -0.0994 C.3       1 <0>        -0.1035
      4 C4         -1.4557   -2.0420    0.0300 C.3       1 <0>        -0.1845
      5 C5         -0.8668   -2.4307    1.3928 C.3       1 <0>        -0.0637
      6 C6          0.5978   -2.0080    1.4334 C.3       1 <0>        -0.0814
      7 C7          0.7468   -0.5066    1.2497 C.3       1 <0>        -0.0756
      8 C8          2.2359   -0.2507    0.8931 C.3       1 <0>        -0.1210
      9 C9          2.3214   -0.2697   -0.6447 C.3       1 <0>        -0.1452
     10 C10         0.8819   -0.4921   -1.1638 C.3       1 <0>         0.2420
     11 C11         0.6421   -1.9194   -1.4324 C.1       1 <0>        -0.1674
     12 C12         0.4508   -3.0577   -1.6466 C.1       1 <0>        -0.1923
     13 O1          0.6431    0.2893   -2.3362 O.3       1 <0>        -0.5378
     14 C13         1.1994   -2.3974    2.7872 C.3       1 <0>        -0.1157
     15 C14         1.0528   -3.8985    3.0079 C.3       1 <0>        -0.1165
     16 C15         0.4008   -4.5607    1.7904 C.3       1 <0>        -0.0669
     17 H1          1.0348   -4.4251    0.9141 H         1 <0>         0.0826
     18 C16        -0.9823   -3.9527    1.5497 C.3       1 <0>        -0.0456
     19 C17        -1.5671   -4.5068    0.2393 C.3       1 <0>        -0.0589
     20 C18        -1.4343   -6.0044    0.2373 C.2       1 <0>        -0.1964
     21 C19        -2.0934   -6.9396   -0.5811 C.2       1 <0>        -0.0767
     22 C20        -1.6480   -8.1568   -0.2124 C.2       1 <0>        -0.5776
     23 O2         -0.7572   -8.0013    0.7835 O.3       1 <0>        -0.1159
     24 C21        -0.6240   -6.6986    1.0617 C.2       1 <0>         0.0429
     25 C22         0.2590   -6.0600    2.1018 C.3       1 <0>        -0.0476
     26 S1         -2.1481   -9.6929   -0.9161 S.o2      1 <0>         2.5315
     27 O3         -1.9411  -10.6485    0.1149 O.2       1 <0>        -0.9228
     28 O4         -3.4514   -9.4501   -1.4278 O.2       1 <0>        -0.9185
     29 C23        -0.9859   -9.9819   -2.2785 C.3       1 <0>        -0.6457
     30 C24        -1.9025   -4.2817    2.7270 C.3       1 <0>        -0.1452
     31 H2          1.0039    1.9031    0.0027 H         1 <0>         0.0578
     32 H3         -0.5459    1.8868   -0.8726 H         1 <0>         0.0645
     33 H4         -0.5289    1.8773    0.9072 H         1 <0>         0.0550
     34 H5         -2.0130   -0.0774    0.6954 H         1 <0>         0.0612
     35 H6         -1.8305   -0.2322   -1.0641 H         1 <0>         0.0645
     36 H7         -2.4879   -2.3863   -0.0346 H         1 <0>         0.0609
     37 H8         -0.8650   -2.4941   -0.7667 H         1 <0>         0.1211
     38 H9         -1.4247   -1.9364    2.1882 H         1 <0>         0.0717
     39 H10         1.1437   -2.5173    0.6392 H         1 <0>         0.0826
     40 H11         0.4334    0.0282    2.1463 H         1 <0>         0.0868
     41 H12         2.5504    0.7211    1.2736 H         1 <0>         0.0691
     42 H13         2.8620   -1.0382    1.3126 H         1 <0>         0.0714
     43 H14         2.7069    0.6825   -1.0091 H         1 <0>         0.0835
     44 H15         2.9667   -1.0846   -0.9728 H         1 <0>         0.0690
     45 H16         0.2798   -4.0758   -1.8381 H         1 <0>         0.2205
     46 H17         1.1723    0.0233   -3.1006 H         1 <0>         0.3795
     47 H18         2.2561   -2.1305    2.8039 H         1 <0>         0.0640
     48 H19         0.6795   -1.8621    3.5817 H         1 <0>         0.0632
     49 H20         2.0379   -4.3358    3.1704 H         1 <0>         0.0646
     50 H21         0.4330   -4.0736    3.8873 H         1 <0>         0.0680
     51 H22        -2.6199   -4.2340    0.1658 H         1 <0>         0.0803
     52 H23        -1.0215   -4.0912   -0.6079 H         1 <0>         0.0958
     53 H24        -2.8160   -6.7240   -1.3542 H         1 <0>         0.1663
     54 H25         1.2421   -6.5304    2.0837 H         1 <0>         0.0905
     55 H26        -0.1887   -6.1867    3.0875 H         1 <0>         0.0978
     56 H27         0.0297  -10.0300   -1.8857 H         1 <0>         0.1349
     57 H28        -1.2300  -10.9232   -2.7709 H         1 <0>         0.1392
     58 H29        -1.0590   -9.1661   -2.9977 H         1 <0>         0.1337
     59 H30        -2.8914   -3.8615    2.5437 H         1 <0>         0.0570
     60 H31        -1.9817   -5.3635    2.8348 H         1 <0>         0.0552
     61 H32        -1.4899   -3.8547    3.6410 H         1 <0>         0.0614
@<TRIPOS>BOND
     1    1    2 1
     2    1   31 1
     3    1   32 1
     4    1   33 1
     5    2    7 1
     6    2   10 1
     7    2    3 1
     8    3    4 1
     9    3   34 1
    10    3   35 1
    11    4    5 1
    12    4   36 1
    13    4   37 1
    14    5   18 1
    15    5    6 1
    16    5   38 1
    17    6    7 1
    18    6   14 1
    19    6   39 1
    20    7    8 1
    21    7   40 1
    22    8    9 1
    23    8   41 1
    24    8   42 1
    25    9   10 1
    26    9   43 1
    27    9   44 1
    28   10   11 1
    29   10   13 1
    30   11   12 3
    31   12   45 1
    32   13   46 1
    33   14   15 1
    34   14   47 1
    35   14   48 1
    36   15   16 1
    37   15   49 1
    38   15   50 1
    39   16   17 1
    40   16   25 1
    41   16   18 1
    42   18   19 1
    43   18   30 1
    44   19   20 1
    45   19   51 1
    46   19   52 1
    47   20   24 2
    48   20   21 1
    49   21   22 2
    50   21   53 1
    51   22   23 1
    52   22   26 1
    53   23   24 1
    54   24   25 1
    55   25   54 1
    56   25   55 1
    57   26   27 2
    58   26   28 2
    59   26   29 1
    60   29   56 1
    61   29   57 1
    62   29   58 1
    63   30   59 1
    64   30   60 1
    65   30   61 1
@<TRIPOS>MOLECULE
CHEMBL45083__4
   61    65     0     0     0
SMALL
USER_CHARGES

@<TRIPOS>ATOM
      1 C1         -0.0187    1.5258    0.0104 C.3       1 <0>        -0.1362
      2 C2          0.0021   -0.0041    0.0020 C.3       1 <0>        -0.0434
      3 C3         -1.4160   -0.5364    0.0681 C.3       1 <0>        -0.1004
      4 C4         -2.0823    0.0897    1.3046 C.3       1 <0>        -0.1209
      5 C5         -1.3006   -0.2216    2.5768 C.3       1 <0>        -0.0679
      6 C6          0.1694    0.2001    2.4560 C.3       1 <0>        -0.0757
      7 C7          0.7518   -0.5261    1.2576 C.3       1 <0>        -0.0821
      8 C8          2.2062   -0.1876    0.9133 C.3       1 <0>        -0.1125
      9 C9          2.3056   -0.5697   -0.5889 C.3       1 <0>        -0.1450
     10 C10         0.8645   -0.5020   -1.1531 C.3       1 <0>         0.2496
     11 C11         0.4211   -1.8387   -1.5814 C.1       1 <0>        -0.2084
     12 C12         0.0675   -2.9048   -1.9229 C.1       1 <0>        -0.1822
     13 O1          0.8038    0.4150   -2.2474 O.3       1 <0>        -0.5405
     14 C13         0.9015   -0.2204    3.7336 C.3       1 <0>        -0.1124
     15 C14         0.2791    0.5134    4.9198 C.3       1 <0>        -0.1162
     16 C15        -1.2006    0.1421    5.0587 C.3       1 <0>        -0.0677
     17 H1         -1.2926   -0.9212    5.2798 H         1 <0>         0.0803
     18 C16        -1.9544    0.4808    3.7707 C.3       1 <0>        -0.0452
     19 C17        -3.3999   -0.0369    3.8684 C.3       1 <0>        -0.0443
     20 C18        -3.9908    0.3873    5.1837 C.2       1 <0>        -0.1943
     21 C19        -5.3440    0.4061    5.5686 C.2       1 <0>        -0.0754
     22 C20        -5.3784    0.8598    6.8370 C.2       1 <0>        -0.5777
     23 O2         -4.1184    1.1145    7.2330 O.3       1 <0>        -0.1158
     24 C21        -3.2726    0.8309    6.2351 C.2       1 <0>         0.0433
     25 C22        -1.7724    0.9644    6.2256 C.3       1 <0>        -0.0458
     26 S1         -6.8291    1.0825    7.8119 S.o2      1 <0>         2.5321
     27 O3         -6.4845    2.0935    8.7492 O.2       1 <0>        -0.9226
     28 O4         -7.8709    1.2937    6.8689 O.2       1 <0>        -0.9187
     29 C23        -7.0675   -0.5023    8.6618 C.3       1 <0>        -0.6454
     30 C24        -1.9424    1.9946    3.5487 C.3       1 <0>        -0.1499
     31 H2          1.0039    1.9031    0.0027 H         1 <0>         0.0568
     32 H3         -0.5459    1.8868   -0.8726 H         1 <0>         0.0616
     33 H4         -0.5289    1.8773    0.9072 H         1 <0>         0.0655
     34 H5         -1.9615   -0.2513   -0.8314 H         1 <0>         0.0649
     35 H6         -1.4005   -1.6220    0.1650 H         1 <0>         0.0631
     36 H7         -2.1332    1.1706    1.1731 H         1 <0>         0.0726
     37 H8         -3.0938   -0.3044    1.4024 H         1 <0>         0.0640
     38 H9         -1.3271   -1.2977    2.7481 H         1 <0>         0.0670
     39 H10         0.2388    1.2781    2.3102 H         1 <0>         0.0881
     40 H11         0.6154   -1.6024    1.3630 H         1 <0>         0.0764
     41 H12         2.3985    0.8760    1.0543 H         1 <0>         0.0746
     42 H13         2.8935   -0.7873    1.5101 H         1 <0>         0.0697
     43 H14         2.9465    0.1390   -1.1135 H         1 <0>         0.0803
     44 H15         2.7009   -1.5801   -0.6926 H         1 <0>         0.0716
     45 H16        -0.2488   -3.8583   -2.2284 H         1 <0>         0.2178
     46 H17         1.3334    0.1506   -3.0120 H         1 <0>         0.3780
     47 H18         0.8003   -1.2964    3.8755 H         1 <0>         0.0630
     48 H19         1.9563    0.0424    3.6538 H         1 <0>         0.0674
     49 H20         0.8075    0.2373    5.8323 H         1 <0>         0.0660
     50 H21         0.3682    1.5888    4.7658 H         1 <0>         0.0686
     51 H22        -3.9914    0.3790    3.0527 H         1 <0>         0.0814
     52 H23        -3.4021   -1.1249    3.8025 H         1 <0>         0.0775
     53 H24        -6.1905    0.1141    4.9648 H         1 <0>         0.1664
     54 H25        -1.3675    0.5919    7.1666 H         1 <0>         0.0912
     55 H26        -1.5006    2.0125    6.1004 H         1 <0>         0.0986
     56 H27        -6.1957   -0.7180    9.2795 H         1 <0>         0.1349
     57 H28        -7.9548   -0.4466    9.2924 H         1 <0>         0.1391
     58 H29        -7.1951   -1.2945    7.9241 H         1 <0>         0.1336
     59 H30        -2.4971    2.2332    2.6413 H         1 <0>         0.0614
     60 H31        -2.4084    2.4904    4.4003 H         1 <0>         0.0556
     61 H32        -0.9132    2.3387    3.4465 H         1 <0>         0.0643
@<TRIPOS>BOND
     1    1    2 1
     2    1   31 1
     3    1   32 1
     4    1   33 1
     5    2    7 1
     6    2   10 1
     7    2    3 1
     8    3    4 1
     9    3   34 1
    10    3   35 1
    11    4    5 1
    12    4   36 1
    13    4   37 1
    14    5   18 1
    15    5    6 1
    16    5   38 1
    17    6    7 1
    18    6   14 1
    19    6   39 1
    20    7    8 1
    21    7   40 1
    22    8    9 1
    23    8   41 1
    24    8   42 1
    25    9   10 1
    26    9   43 1
    27    9   44 1
    28   10   11 1
    29   10   13 1
    30   11   12 3
    31   12   45 1
    32   13   46 1
    33   14   15 1
    34   14   47 1
    35   14   48 1
    36   15   16 1
    37   15   49 1
    38   15   50 1
    39   16   17 1
    40   16   25 1
    41   16   18 1
    42   18   19 1
    43   18   30 1
    44   19   20 1
    45   19   51 1
    46   19   52 1
    47   20   24 2
    48   20   21 1
    49   21   22 2
    50   21   53 1
    51   22   23 1
    52   22   26 1
    53   23   24 1
    54   24   25 1
    55   25   54 1
    56   25   55 1
    57   26   27 2
    58   26   28 2
    59   26   29 1
    60   29   56 1
    61   29   57 1
    62   29   58 1
    63   30   59 1
    64   30   60 1
    65   30   61 1
@<TRIPOS>MOLECULE
CHEMBL45083__5
   61    65     0     0     0
SMALL
USER_CHARGES

@<TRIPOS>ATOM
      1 C1         -0.0187    1.5258    0.0104 C.3       1 <0>        -0.1276
      2 C2          0.0021   -0.0041    0.0020 C.3       1 <0>        -0.0279
      3 C3         -1.4078   -0.5907   -0.1040 C.3       1 <0>        -0.1056
      4 C4         -2.1763   -0.3883    1.1990 C.3       1 <0>        -0.1188
      5 C5         -1.4512   -1.1448    2.3174 C.3       1 <0>        -0.0669
      6 C6         -0.0640   -0.5363    2.4967 C.3       1 <0>        -0.0712
      7 C7          0.7355   -0.5741    1.2286 C.3       1 <0>        -0.0724
      8 C8          1.0840   -2.0124    0.8031 C.3       1 <0>        -0.1167
      9 C9          1.4881   -1.8608   -0.6816 C.3       1 <0>        -0.1469
     10 C10         0.8229   -0.5675   -1.1886 C.3       1 <0>         0.2416
     11 C11        -0.0691   -0.8679   -2.3204 C.1       1 <0>        -0.2075
     12 C12        -0.7805   -1.1075   -3.2231 C.1       1 <0>        -0.1844
     13 O1          1.8211    0.3746   -1.5862 O.3       1 <0>        -0.5420
     14 C13         0.6660   -1.2898    3.6136 C.3       1 <0>        -0.1131
     15 C14        -0.1178   -1.1248    4.9137 C.3       1 <0>        -0.1163
     16 C15        -1.5264   -1.7094    4.7635 C.3       1 <0>        -0.0676
     17 H1         -1.4613   -2.7822    4.5816 H         1 <0>         0.0809
     18 C16        -2.2612   -1.0189    3.6126 C.3       1 <0>        -0.0456
     19 C17        -3.6145   -1.7102    3.3749 C.3       1 <0>        -0.0438
     20 C18        -4.3280   -1.8630    4.6891 C.2       1 <0>        -0.1942
     21 C19        -5.6887   -2.1363    4.9190 C.2       1 <0>        -0.0754
     22 C20        -5.8527   -2.1817    6.2558 C.2       1 <0>        -0.5777
     23 O2         -4.6630   -1.9508    6.8393 O.3       1 <0>        -0.1160
     24 C21        -3.7349   -1.7530    5.8950 C.2       1 <0>         0.0437
     25 C22        -2.2714   -1.4521    6.0838 C.3       1 <0>        -0.0461
     26 S1         -7.3696   -2.4908    7.0972 S.o2      1 <0>         2.5320
     27 O3         -7.2188   -1.8583    8.3607 O.2       1 <0>        -0.9227
     28 O4         -8.3795   -2.0677    6.1913 O.2       1 <0>        -0.9187
     29 C23        -7.4298   -4.2920    7.3033 C.3       1 <0>        -0.6454
     30 C24        -2.4705    0.4591    3.9480 C.3       1 <0>        -0.1497
     31 H2          1.0039    1.9031    0.0027 H         1 <0>         0.0672
     32 H3         -0.5459    1.8868   -0.8726 H         1 <0>         0.0531
     33 H4         -0.5289    1.8773    0.9072 H         1 <0>         0.0564
     34 H5         -1.9418   -0.0972   -0.9160 H         1 <0>         0.0632
     35 H6         -1.3377   -1.6573   -0.3174 H         1 <0>         0.0638
     36 H7         -2.2138    0.6740    1.4404 H         1 <0>         0.0704
     37 H8         -3.1888   -0.7774    1.0908 H         1 <0>         0.0665
     38 H9         -1.3592   -2.1964    2.0459 H         1 <0>         0.0738
     39 H10        -0.1733    0.5036    2.8043 H         1 <0>         0.0738
     40 H11         1.6642   -0.0232    1.3773 H         1 <0>         0.0764
     41 H12         1.9183   -2.3952    1.3909 H         1 <0>         0.0717
     42 H13         0.2146   -2.6627    0.8999 H         1 <0>         0.0706
     43 H14         2.5718   -1.7817   -0.7674 H         1 <0>         0.0798
     44 H15         1.1290   -2.7151   -1.2554 H         1 <0>         0.0711
     45 H16        -1.4167   -1.3218   -4.0304 H         1 <0>         0.2176
     46 H17         2.3676    0.0794   -2.3273 H         1 <0>         0.3780
     47 H18         0.7314   -2.3475    3.3583 H         1 <0>         0.0654
     48 H19         1.6682   -0.8792    3.7367 H         1 <0>         0.0660
     49 H20         0.4041   -1.6432    5.7180 H         1 <0>         0.0663
     50 H21        -0.1912   -0.0652    5.1587 H         1 <0>         0.0684
     51 H22        -4.2195   -1.1043    2.7003 H         1 <0>         0.0813
     52 H23        -3.4491   -2.6931    2.9338 H         1 <0>         0.0776
     53 H24        -6.4532   -2.2810    4.1699 H         1 <0>         0.1664
     54 H25        -1.8648   -2.0969    6.8628 H         1 <0>         0.0911
     55 H26        -2.1488   -0.4084    6.3734 H         1 <0>         0.0982
     56 H27        -6.5703   -4.6197    7.8881 H         1 <0>         0.1349
     57 H28        -8.3483   -4.5680    7.8213 H         1 <0>         0.1391
     58 H29        -7.4070   -4.7707    6.3243 H         1 <0>         0.1337
     59 H30        -3.0116    0.9431    3.1349 H         1 <0>         0.0614
     60 H31        -3.0467    0.5445    4.8693 H         1 <0>         0.0548
     61 H32        -1.5025    0.9427    4.0787 H         1 <0>         0.0642
@<TRIPOS>BOND
     1    1    2 1
     2    1   31 1
     3    1   32 1
     4    1   33 1
     5    2    7 1
     6    2   10 1
     7    2    3 1
     8    3    4 1
     9    3   34 1
    10    3   35 1
    11    4    5 1
    12    4   36 1
    13    4   37 1
    14    5   18 1
    15    5    6 1
    16    5   38 1
    17    6    7 1
    18    6   14 1
    19    6   39 1
    20    7    8 1
    21    7   40 1
    22    8    9 1
    23    8   41 1
    24    8   42 1
    25    9   10 1
    26    9   43 1
    27    9   44 1
    28   10   11 1
    29   10   13 1
    30   11   12 3
    31   12   45 1
    32   13   46 1
    33   14   15 1
    34   14   47 1
    35   14   48 1
    36   15   16 1
    37   15   49 1
    38   15   50 1
    39   16   17 1
    40   16   25 1
    41   16   18 1
    42   18   19 1
    43   18   30 1
    44   19   20 1
    45   19   51 1
    46   19   52 1
    47   20   24 2
    48   20   21 1
    49   21   22 2
    50   21   53 1
    51   22   23 1
    52   22   26 1
    53   23   24 1
    54   24   25 1
    55   25   54 1
    56   25   55 1
    57   26   27 2
    58   26   28 2
    59   26   29 1
    60   29   56 1
    61   29   57 1
    62   29   58 1
    63   30   59 1
    64   30   60 1
    65   30   61 1
@<TRIPOS>MOLECULE
CHEMBL45083__6
   61    65     0     0     0
SMALL
USER_CHARGES

@<TRIPOS>ATOM
      1 C1         -0.0187    1.5290    0.0104 C.3       1 <0>        -0.1389
      2 C2          0.0021   -0.0041    0.0020 C.3       1 <0>        -0.0303
      3 C3         -1.4085   -0.5341    0.0682 C.3       1 <0>        -0.1040
      4 C4         -2.0059   -0.1703    1.4465 C.3       1 <0>        -0.1090
      5 C5         -1.1841   -0.8031    2.5552 C.3       1 <0>        -0.0712
      6 C6          0.2774   -0.3322    2.5182 C.3       1 <0>        -0.0610
      7 C7          0.8358   -0.5934    1.1545 C.3       1 <0>        -0.0781
      8 C8          2.2401   -0.0761    0.8204 C.3       1 <0>        -0.1127
      9 C9          2.3134   -0.3155   -0.7152 C.3       1 <0>        -0.1452
     10 C10         0.8476   -0.4065   -1.2176 C.3       1 <0>         0.2411
     11 C11         0.5413   -1.7666   -1.6691 C.1       1 <0>        -0.2073
     12 C12         0.2960   -2.8562   -2.0308 C.1       1 <0>        -0.1801
     13 O1          0.6343    0.5315   -2.2752 O.3       1 <0>        -0.5403
     14 C13         0.3459    1.1126    2.9883 C.3       1 <0>        -0.1144
     15 C14        -0.0309    1.1693    4.4703 C.3       1 <0>        -0.1174
     16 C15        -0.6924   -0.1320    4.9250 C.3       1 <0>        -0.0646
     17 H1          0.0722   -0.9130    5.0093 H         1 <0>         0.0800
     18 C16        -1.7737   -0.5933    3.9491 C.3       1 <0>        -0.0404
     19 C17        -2.2922   -1.9802    4.3937 C.3       1 <0>        -0.0465
     20 C18        -2.6149   -1.9525    5.8597 C.2       1 <0>        -0.1943
     21 C19        -3.4014   -2.8562    6.5984 C.2       1 <0>        -0.0756
     22 C20        -3.3938   -2.4218    7.8738 C.2       1 <0>        -0.5774
     23 O2         -2.6482   -1.3043    7.9393 O.3       1 <0>        -0.1156
     24 C21        -2.1685   -1.0182    6.7226 C.2       1 <0>         0.0446
     25 C22        -1.2827    0.1292    6.3202 C.3       1 <0>        -0.0467
     26 S1         -4.2193   -3.1898    9.2277 S.o2      1 <0>         2.5322
     27 O3         -4.4548   -2.1374   10.1530 O.2       1 <0>        -0.9225
     28 O4         -5.3046   -3.8931    8.6389 O.2       1 <0>        -0.9187
     29 C23        -3.0113   -4.3603    9.9069 C.3       1 <0>        -0.6454
     30 C24        -2.9354    0.3945    3.9226 C.3       1 <0>        -0.1422
     31 H2          1.0028    1.9059    0.0596 H         1 <0>         0.0575
     32 H3         -0.4961    1.8909   -0.9002 H         1 <0>         0.0663
     33 H4         -0.5777    1.8800    0.8779 H         1 <0>         0.0623
     34 H5         -2.0183   -0.0815   -0.7163 H         1 <0>         0.0662
     35 H6         -1.4295   -1.6199   -0.0336 H         1 <0>         0.0613
     36 H7         -2.0375    0.9076    1.5492 H         1 <0>         0.0714
     37 H8         -3.0243   -0.5691    1.4734 H         1 <0>         0.0623
     38 H9         -1.1732   -1.8907    2.3704 H         1 <0>         0.0643
     39 H10         0.8432   -0.9521    3.2491 H         1 <0>         0.0698
     40 H11         0.8698   -1.7052    1.0236 H         1 <0>         0.0657
     41 H12         2.3607    0.9720    1.0666 H         1 <0>         0.0780
     42 H13         2.9967   -0.6780    1.3310 H         1 <0>         0.0663
     43 H14         2.8249    0.5139   -1.1997 H         1 <0>         0.0814
     44 H15         2.8334   -1.2512   -0.9201 H         1 <0>         0.0699
     45 H16         0.0766   -3.8308   -2.3543 H         1 <0>         0.2183
     46 H17         1.1373    0.3396   -3.0785 H         1 <0>         0.3764
     47 H18         1.3500    1.5090    2.8577 H         1 <0>         0.0669
     48 H19        -0.3745    1.7318    2.4544 H         1 <0>         0.0732
     49 H20         0.8766    1.3340    5.0553 H         1 <0>         0.0637
     50 H21        -0.7086    2.0061    4.6334 H         1 <0>         0.0664
     51 H22        -3.1880   -2.2246    3.8237 H         1 <0>         0.0790
     52 H23        -1.5213   -2.7267    4.2024 H         1 <0>         0.0772
     53 H24        -3.9099   -3.7291    6.2164 H         1 <0>         0.1664
     54 H25        -0.4636    0.2178    7.0414 H         1 <0>         0.0901
     55 H26        -1.8488    1.0583    6.3233 H         1 <0>         0.0975
     56 H27        -2.1229   -3.8183   10.2313 H         1 <0>         0.1350
     57 H28        -3.4495   -4.8819   10.7578 H         1 <0>         0.1392
     58 H29        -2.7355   -5.0839    9.1398 H         1 <0>         0.1336
     59 H30        -3.7210    0.0141    3.2698 H         1 <0>         0.0605
     60 H31        -3.3296    0.5189    4.9312 H         1 <0>         0.0540
     61 H32        -2.5858    1.3566    3.5479 H         1 <0>         0.0618
@<TRIPOS>BOND
     1    1    2 1
     2    1   31 1
     3    1   32 1
     4    1   33 1
     5    2    7 1
     6    2   10 1
     7    2    3 1
     8    3    4 1
     9    3   34 1
    10    3   35 1
    11    4    5 1
    12    4   36 1
    13    4   37 1
    14    5   18 1
    15    5    6 1
    16    5   38 1
    17    6    7 1
    18    6   14 1
    19    6   39 1
    20    7    8 1
    21    7   40 1
    22    8    9 1
    23    8   41 1
    24    8   42 1
    25    9   10 1
    26    9   43 1
    27    9   44 1
    28   10   11 1
    29   10   13 1
    30   11   12 3
    31   12   45 1
    32   13   46 1
    33   14   15 1
    34   14   47 1
    35   14   48 1
    36   15   16 1
    37   15   49 1
    38   15   50 1
    39   16   17 1
    40   16   25 1
    41   16   18 1
    42   18   19 1
    43   18   30 1
    44   19   20 1
    45   19   51 1
    46   19   52 1
    47   20   24 2
    48   20   21 1
    49   21   22 2
    50   21   53 1
    51   22   23 1
    52   22   26 1
    53   23   24 1
    54   24   25 1
    55   25   54 1
    56   25   55 1
    57   26   27 2
    58   26   28 2
    59   26   29 1
    60   29   56 1
    61   29   57 1
    62   29   58 1
    63   30   59 1
    64   30   60 1
    65   30   61 1
@<TRIPOS>MOLECULE
CHEMBL45083__7
   61    65     0     0     0
SMALL
USER_CHARGES

@<TRIPOS>ATOM
      1 C1          0.3134    1.5894    0.2734 C.3       1 <0>        -0.1342
      2 C2          0.3362    0.0399    0.2434 C.3       1 <0>        -0.0267
      3 C3         -1.0858   -0.3978    0.0220 C.3       1 <0>        -0.1009
      4 C4         -1.4414   -1.8002    0.4655 C.3       1 <0>        -0.1084
      5 C5         -0.8564   -2.1872    1.8149 C.3       1 <0>        -0.0579
      6 C6          0.6229   -1.8713    1.8765 C.3       1 <0>        -0.0668
      7 C7          0.9398   -0.4135    1.5827 C.3       1 <0>        -0.0693
      8 C8          2.4689   -0.2979    1.3349 C.3       1 <0>        -0.1241
      9 C9          2.6600   -0.6708   -0.1454 C.3       1 <0>        -0.1437
     10 C10         1.3244   -0.3582   -0.8522 C.3       1 <0>         0.2521
     11 C11         0.8904   -1.5262   -1.6287 C.1       1 <0>        -0.2011
     12 C12         0.5433   -2.4601   -2.2496 C.1       1 <0>        -0.1833
     13 O1          1.5160    0.7531   -1.7439 O.3       1 <0>        -0.5460
     14 C13         1.2140   -2.2968    3.2200 C.3       1 <0>        -0.1155
     15 C14         0.4218   -1.6738    4.3655 C.3       1 <0>        -0.1141
     16 C15        -1.0321   -2.1468    4.3103 C.3       1 <0>        -0.0687
     17 H1         -1.0533   -3.2416    4.3558 H         1 <0>         0.0780
     18 C16        -1.6795   -1.6986    2.9942 C.3       1 <0>        -0.0363
     19 C17        -3.0676   -2.3777    2.9048 C.3       1 <0>        -0.0486
     20 C18        -3.8375   -2.0146    4.1455 C.2       1 <0>        -0.1934
     21 C19        -5.2288   -1.9504    4.3293 C.2       1 <0>        -0.0739
     22 C20        -5.4311   -1.5733    5.6074 C.2       1 <0>        -0.5789
     23 O2         -4.2338   -1.4179    6.2013 O.3       1 <0>        -0.1157
     24 C21        -3.2617   -1.6652    5.3143 C.2       1 <0>         0.0455
     25 C22        -1.7736   -1.5729    5.5210 C.3       1 <0>        -0.0429
     26 S1         -6.9988   -1.3211    6.3711 S.o2      1 <0>         2.5321
     27 O3         -6.7475   -0.3922    7.4167 O.2       1 <0>        -0.9228
     28 O4         -7.8738   -0.9890    5.3018 O.2       1 <0>        -0.9187
     29 C23        -7.4448   -2.9369    7.0646 C.3       1 <0>        -0.6456
     30 C24        -1.8812   -0.1865    2.9981 C.3       1 <0>        -0.1511
     31 H2          1.3298    1.9656    0.3899 H         1 <0>         0.0585
     32 H3         -0.1082    1.9647   -0.6591 H         1 <0>         0.0620
     33 H4         -0.2974    1.9277    1.1104 H         1 <0>         0.0506
     34 H5         -1.7568    0.3267    0.5034 H         1 <0>         0.0674
     35 H6         -1.3216   -0.2982   -1.0520 H         1 <0>         0.0558
     36 H7         -2.5403   -1.8890    0.5132 H         1 <0>         0.0613
     37 H8         -1.1226   -2.5329   -0.2882 H         1 <0>         0.0608
     38 H9         -0.9202   -3.3094    1.8547 H         1 <0>         0.0566
     39 H10         1.1235   -2.4850    1.0987 H         1 <0>         0.0656
     40 H11         0.6325    0.2489    2.4041 H         1 <0>         0.0925
     41 H12         2.8144    0.7214    1.5252 H         1 <0>         0.0697
     42 H13         3.0188   -0.9913    1.9753 H         1 <0>         0.0730
     43 H14         3.4595   -0.0708   -0.5848 H         1 <0>         0.0775
     44 H15         2.8948   -1.7308   -0.2456 H         1 <0>         0.0721
     45 H16         0.2329   -3.2954   -2.8050 H         1 <0>         0.2168
     46 H17         2.1324    0.5752   -2.4674 H         1 <0>         0.3755
     47 H18         1.1704   -3.3870    3.3057 H         1 <0>         0.0613
     48 H19         2.2570   -1.9852    3.2873 H         1 <0>         0.0696
     49 H20         0.8624   -1.9929    5.3150 H         1 <0>         0.0634
     50 H21         0.4736   -0.5903    4.3045 H         1 <0>         0.0704
     51 H22        -3.5949   -2.0147    2.0279 H         1 <0>         0.0812
     52 H23        -2.9361   -3.4557    2.8536 H         1 <0>         0.0771
     53 H24        -5.9899   -2.1617    3.5922 H         1 <0>         0.1663
     54 H25        -1.5055   -2.1521    6.4126 H         1 <0>         0.0899
     55 H26        -1.4860   -0.5357    5.6887 H         1 <0>         0.0969
     56 H27        -6.6888   -3.2432    7.7875 H         1 <0>         0.1348
     57 H28        -8.4131   -2.8649    7.5600 H         1 <0>         0.1389
     58 H29        -7.5006   -3.6734    6.2630 H         1 <0>         0.1336
     59 H30        -2.4261    0.1097    2.1017 H         1 <0>         0.0625
     60 H31        -2.4509    0.1018    3.8814 H         1 <0>         0.0536
     61 H32        -0.9107    0.3095    3.0138 H         1 <0>         0.0657
@<TRIPOS>BOND
     1    1    2 1
     2    1   31 1
     3    1   32 1
     4    1   33 1
     5    2    7 1
     6    2   10 1
     7    2    3 1
     8    3    4 1
     9    3   34 1
    10    3   35 1
    11    4    5 1
    12    4   36 1
    13    4   37 1
    14    5   18 1
    15    5    6 1
    16    5   38 1
    17    6    7 1
    18    6   14 1
    19    6   39 1
    20    7    8 1
    21    7   40 1
    22    8    9 1
    23    8   41 1
    24    8   42 1
    25    9   10 1
    26    9   43 1
    27    9   44 1
    28   10   11 1
    29   10   13 1
    30   11   12 3
    31   12   45 1
    32   13   46 1
    33   14   15 1
    34   14   47 1
    35   14   48 1
    36   15   16 1
    37   15   49 1
    38   15   50 1
    39   16   17 1
    40   16   25 1
    41   16   18 1
    42   18   19 1
    43   18   30 1
    44   19   20 1
    45   19   51 1
    46   19   52 1
    47   20   24 2
    48   20   21 1
    49   21   22 2
    50   21   53 1
    51   22   23 1
    52   22   26 1
    53   23   24 1
    54   24   25 1
    55   25   54 1
    56   25   55 1
    57   26   27 2
    58   26   28 2
    59   26   29 1
    60   29   56 1
    61   29   57 1
    62   29   58 1
    63   30   59 1
    64   30   60 1
    65   30   61 1
@<TRIPOS>MOLECULE
CHEMBL1201025
   67    71     0     0     0
SMALL
USER_CHARGES

@<TRIPOS>ATOM
      1 C1         -0.0179    1.4678    0.0101 C.3       1 <0>        -0.0460
      2 C2          0.0021   -0.0041    0.0020 C.1       1 <0>        -0.1645
      3 C3          0.0180   -1.1779   -0.0044 C.1       1 <0>        -0.2058
      4 C4          0.0380   -2.6498   -0.0125 C.3       1 <0>         0.2516
      5 C5          0.6396   -3.1768   -1.3393 C.3       1 <0>        -0.1450
      6 C6         -0.5590   -3.0894   -2.3171 C.3       1 <0>        -0.1210
      7 C7         -1.7741   -3.4993   -1.4567 C.3       1 <0>        -0.0716
      8 H1         -2.6429   -2.9047   -1.7391 H         1 <0>         0.0807
      9 C8         -1.3998   -3.2097   -0.0018 C.3       1 <0>        -0.0343
     10 C9         -1.4522   -4.4637    0.8608 C.3       1 <0>        -0.0830
     11 C10        -2.8466   -5.0951    0.7690 C.3       1 <0>        -0.0112
     12 H2         -3.6006   -4.3799    1.0978 H         1 <0>         0.0922
     13 C11        -3.0784   -5.4587   -0.6870 C.2       1 <0>        -0.0537
     14 C12        -4.1490   -6.1720   -1.0075 C.2       1 <0>        -0.1205
     15 C13        -5.1490   -6.6034    0.0398 C.3       1 <0>        -0.0745
     16 C14        -6.5604   -6.3940   -0.5178 C.3       1 <0>        -0.1668
     17 C15        -6.6760   -7.0219   -1.8803 C.2       1 <0>         0.3878
     18 O1         -7.7236   -7.5417   -2.2085 O.2       1 <0>        -0.4740
     19 C16        -5.5968   -7.0191   -2.7816 C.2       1 <0>        -0.2510
     20 C17        -4.3804   -6.5832   -2.3941 C.2       1 <0>         0.0271
     21 C18        -3.2130   -6.5103   -3.3470 C.3       1 <0>        -0.0951
     22 C19        -2.5110   -5.1713   -3.1321 C.3       1 <0>        -0.1131
     23 C20        -2.0656   -4.9842   -1.6891 C.3       1 <0>        -0.0432
     24 H3         -1.1429   -5.5470   -1.5469 H         1 <0>         0.0876
     25 C21        -2.9067   -6.3339    1.6251 C.ar      1 <0>        -0.1268
     26 C22        -2.0468   -7.3877    1.3750 C.ar      1 <0>        -0.0561
     27 C23        -2.0992   -8.5243    2.1576 C.ar      1 <0>        -0.1956
     28 C24        -3.0169   -8.6084    3.1970 C.ar      1 <0>         0.2144
     29 C25        -3.8792   -7.5480    3.4455 C.ar      1 <0>        -0.1953
     30 C26        -3.8177   -6.4120    2.6626 C.ar      1 <0>        -0.0667
     31 N1         -3.0729   -9.7567    3.9901 N.pl3     1 <0>        -0.6390
     32 C27        -2.1631  -10.8743    3.7263 C.3       1 <0>         0.0927
     33 C28        -4.0414   -9.8436    5.0859 C.3       1 <0>         0.0925
     34 C29        -2.3544   -2.1624    0.5753 C.3       1 <0>        -0.1433
     35 O2          0.7761   -3.1451    1.1063 O.3       1 <0>        -0.5393
     36 H4          1.0047    1.8451    0.0024 H         1 <0>         0.0814
     37 H5         -0.5451    1.8289   -0.8729 H         1 <0>         0.0822
     38 H6         -0.5281    1.8193    0.9069 H         1 <0>         0.0819
     39 H7          1.4576   -2.5384   -1.6730 H         1 <0>         0.0717
     40 H8          0.9737   -4.2085   -1.2290 H         1 <0>         0.0859
     41 H9         -0.6781   -2.0705   -2.6855 H         1 <0>         0.0697
     42 H10        -0.4267   -3.7838   -3.1468 H         1 <0>         0.0780
     43 H11        -0.7069   -5.1772    0.5092 H         1 <0>         0.0706
     44 H12        -1.2407   -4.2002    1.8971 H         1 <0>         0.0771
     45 H13        -5.0010   -7.6574    0.2749 H         1 <0>         0.0778
     46 H14        -5.0183   -6.0030    0.9400 H         1 <0>         0.0949
     47 H15        -7.2862   -6.8521    0.1541 H         1 <0>         0.0922
     48 H16        -6.7644   -5.3259   -0.5935 H         1 <0>         0.0970
     49 H17        -5.7430   -7.3690   -3.7929 H         1 <0>         0.1329
     50 H18        -2.5199   -7.3265   -3.1435 H         1 <0>         0.0883
     51 H19        -3.5713   -6.5778   -4.3742 H         1 <0>         0.0837
     52 H20        -1.6372   -5.1214   -3.7817 H         1 <0>         0.0771
     53 H21        -3.1952   -4.3659   -3.3990 H         1 <0>         0.0686
     54 H22        -1.3338   -7.3218    0.5665 H         1 <0>         0.1164
     55 H23        -1.4276   -9.3471    1.9615 H         1 <0>         0.1197
     56 H24        -4.5941   -7.6103    4.2525 H         1 <0>         0.1212
     57 H25        -4.4848   -5.5854    2.8580 H         1 <0>         0.1201
     58 H26        -1.2477  -10.7415    4.3030 H         1 <0>         0.0481
     59 H27        -2.6426  -11.8093    4.0159 H         1 <0>         0.0660
     60 H28        -1.9220  -10.9035    2.6637 H         1 <0>         0.0684
     61 H29        -4.9713  -10.2751    4.7155 H         1 <0>         0.0482
     62 H30        -3.6382  -10.4746    5.8779 H         1 <0>         0.0659
     63 H31        -4.2353   -8.8458    5.4794 H         1 <0>         0.0689
     64 H32        -2.3016   -1.2533   -0.0238 H         1 <0>         0.0581
     65 H33        -3.3728   -2.5503    0.5579 H         1 <0>         0.0598
     66 H34        -2.0687   -1.9375    1.6029 H         1 <0>         0.0587
     67 H35         1.6958   -2.8475    1.1336 H         1 <0>         0.3790
@<TRIPOS>BOND
     1    1    2 1
     2    1   36 1
     3    1   37 1
     4    1   38 1
     5    2    3 3
     6    3    4 1
     7    4    9 1
     8    4    5 1
     9    4   35 1
    10    5    6 1
    11    5   39 1
    12    5   40 1
    13    6    7 1
    14    6   41 1
    15    6   42 1
    16    7    8 1
    17    7   23 1
    18    7    9 1
    19    9   10 1
    20    9   34 1
    21   10   11 1
    22   10   43 1
    23   10   44 1
    24   11   12 1
    25   11   13 1
    26   11   25 1
    27   13   23 1
    28   13   14 2
    29   14   20 1
    30   14   15 1
    31   15   16 1
    32   15   45 1
    33   15   46 1
    34   16   17 1
    35   16   47 1
    36   16   48 1
    37   17   18 2
    38   17   19 1
    39   19   20 2
    40   19   49 1
    41   20   21 1
    42   21   22 1
    43   21   50 1
    44   21   51 1
    45   22   23 1
    46   22   52 1
    47   22   53 1
    48   23   24 1
    49   25   30 ar
    50   25   26 ar
    51   26   27 ar
    52   26   54 1
    53   27   28 ar
    54   27   55 1
    55   28   29 ar
    56   28   31 1
    57   29   30 ar
    58   29   56 1
    59   30   57 1
    60   31   32 1
    61   31   33 1
    62   32   58 1
    63   32   59 1
    64   32   60 1
    65   33   61 1
    66   33   62 1
    67   33   63 1
    68   34   64 1
    69   34   65 1
    70   34   66 1
    71   35   67 1
@<TRIPOS>MOLECULE
CHEMBL117465
   39    41     0     0     0
SMALL
USER_CHARGES

@<TRIPOS>ATOM
      1 C1         -0.0184    1.5028    0.0103 C.3       1 <0>        -0.1171
      2 C2          0.0021   -0.0041    0.0020 C.2       1 <0>        -0.0624
      3 C3          0.0057   -0.6646   -1.1488 C.2       1 <0>        -0.1746
      4 C4          0.0101   -2.1697   -1.1819 C.3       1 <0>         0.2136
      5 N1          0.6703   -2.6959    0.0198 N.pl3     1 <0>        -0.7403
      6 C5          0.3643   -2.1155    1.2515 C.ar      1 <0>         0.2280
      7 C6          0.0243   -0.7530    1.2746 C.ar      1 <0>        -0.1142
      8 C7         -0.2870   -0.1402    2.4809 C.ar      1 <0>        -0.0500
      9 C8         -0.2501   -0.8844    3.6579 C.ar      1 <0>        -0.1064
     10 C9          0.0974   -2.2348    3.6237 C.ar      1 <0>        -0.0567
     11 C10         0.3942   -2.8463    2.4257 C.ar      1 <0>        -0.1767
     12 C11        -0.5811   -0.2384    4.9520 C.ar      1 <0>         0.0067
     13 C12        -0.5395   -0.9774    6.1299 C.ar      1 <0>        -0.0830
     14 C13        -0.8511   -0.3648    7.3429 C.ar      1 <0>         0.0131
     15 C14        -1.2029    0.9867    7.3689 C.ar      1 <0>        -0.1167
     16 C15        -1.2421    1.7149    6.1945 C.ar      1 <0>         0.1126
     17 C16        -0.9283    1.1111    4.9896 C.ar      1 <0>        -0.1284
     18 F1         -1.5829    3.0219    6.2238 F         1 <0>        -0.1299
     19 C17        -0.8109   -1.1195    8.5593 C.1       1 <0>         0.2501
     20 N2         -0.7790   -1.7181    9.5242 N.1       1 <0>        -0.3993
     21 C18         0.7623   -2.6481   -2.4254 C.3       1 <0>        -0.1531
     22 C19        -1.4310   -2.6808   -1.2347 C.3       1 <0>        -0.1584
     23 H1          1.0042    1.8801    0.0026 H         1 <0>         0.0717
     24 H2         -0.5455    1.8639   -0.8728 H         1 <0>         0.0686
     25 H3         -0.5286    1.8543    0.9071 H         1 <0>         0.0671
     26 H4          0.0050   -0.1132   -2.0774 H         1 <0>         0.1236
     27 H5          1.3028   -3.4287   -0.0411 H         1 <0>         0.4035
     28 H6         -0.5554    0.9056    2.5066 H         1 <0>         0.1306
     29 H7          0.1254   -2.8056    4.5401 H         1 <0>         0.1286
     30 H8          0.6624   -3.8922    2.4055 H         1 <0>         0.1280
     31 H9         -0.2673   -2.0223    6.1048 H         1 <0>         0.1428
     32 H10        -1.4450    1.4632    8.3074 H         1 <0>         0.1469
     33 H11        -0.9565    1.6858    4.0756 H         1 <0>         0.1451
     34 H12         1.7884   -2.2816   -2.3927 H         1 <0>         0.0634
     35 H13         0.7664   -3.7378   -2.4507 H         1 <0>         0.0637
     36 H14         0.2682   -2.2657   -3.3185 H         1 <0>         0.0749
     37 H15        -1.9196   -2.2984   -2.1309 H         1 <0>         0.0666
     38 H16        -1.4294   -3.7705   -1.2588 H         1 <0>         0.0603
     39 H17        -1.9708   -2.3377   -0.3521 H         1 <0>         0.0575
@<TRIPOS>BOND
     1    1    2 1
     2    1   23 1
     3    1   24 1
     4    1   25 1
     5    2    7 1
     6    2    3 2
     7    3    4 1
     8    3   26 1
     9    4    5 1
    10    4   21 1
    11    4   22 1
    12    5    6 1
    13    5   27 1
    14    6   11 ar
    15    6    7 ar
    16    7    8 ar
    17    8    9 ar
    18    8   28 1
    19    9   10 ar
    20    9   12 1
    21   10   11 ar
    22   10   29 1
    23   11   30 1
    24   12   17 ar
    25   12   13 ar
    26   13   14 ar
    27   13   31 1
    28   14   15 ar
    29   14   19 1
    30   15   16 ar
    31   15   32 1
    32   16   17 ar
    33   16   18 1
    34   17   33 1
    35   19   20 3
    36   21   34 1
    37   21   35 1
    38   21   36 1
    39   22   37 1
    40   22   38 1
    41   22   39 1
@<TRIPOS>MOLECULE
CHEMBL558664
   47    49     0     0     0
SMALL
USER_CHARGES

@<TRIPOS>ATOM
      1 C1         -0.6280    0.9342   -0.6029 C.3       1 <0>        -0.0486
      2 N1         -0.4200   -0.5101   -0.4334 N.4       1 <0>        -0.3933
      3 C2         -1.7114   -1.1928   -0.1629 C.3       1 <0>        -0.0199
      4 C3         -1.3153   -2.5140    0.5303 C.3       1 <0>        -0.1664
      5 C4          0.0709   -2.2417    1.1499 C.3       1 <0>         0.1389
      6 H1          0.8150   -2.9145    0.7235 H         1 <0>         0.1355
      7 C5          0.3957   -0.7788    0.7788 C.3       1 <0>        -0.0561
      8 N2          0.0177   -2.3999    2.6053 N.pl3     1 <0>        -0.6046
      9 C6          0.8492   -3.4109    3.2631 C.3       1 <0>         0.1405
     10 C7          2.1243   -2.7727    3.7510 C.ar      1 <0>        -0.0672
     11 C8          2.3822   -1.4432    3.4730 C.ar      1 <0>        -0.1179
     12 C9          3.5516   -0.8579    3.9205 C.ar      1 <0>        -0.0819
     13 C10         4.4632   -1.6018    4.6465 C.ar      1 <0>        -0.1121
     14 C11         4.2049   -2.9307    4.9252 C.ar      1 <0>        -0.0601
     15 C12         3.0332   -3.5150    4.4813 C.ar      1 <0>        -0.1742
     16 C13         2.7491   -4.9625    4.7897 C.3       1 <0>         0.5055
     17 F1          3.7774   -5.4805    5.5843 F         1 <0>        -0.1690
     18 F2          1.5339   -5.0634    5.4754 F         1 <0>        -0.1752
     19 F3          2.6723   -5.6873    3.5955 F         1 <0>        -0.1759
     20 C14        -0.8228   -1.5896    3.3632 C.ar      1 <0>         0.2445
     21 C15        -0.9653   -1.8218    4.7286 C.ar      1 <0>        -0.1716
     22 C16        -1.7952   -1.0233    5.4817 C.ar      1 <0>         0.0011
     23 C17        -2.4965    0.0231    4.8744 C.ar      1 <0>        -0.0516
     24 C18        -2.3514    0.2541    3.5020 C.ar      1 <0>         0.0507
     25 C19        -1.5139   -0.5466    2.7555 C.ar      1 <0>        -0.2327
     26 Cl1        -3.2197    1.5511    2.7420 Cl        1 <0>        -0.0405
     27 C20        -3.3614    0.8558    5.6549 C.1       1 <0>         0.2352
     28 N3         -4.0474    1.5164    6.2742 N.1       1 <0>        -0.3803
     29 H2          0.3369    1.4304   -0.7080 H         1 <0>         0.1289
     30 H3         -1.2274    1.1126   -1.4956 H         1 <0>         0.1307
     31 H4         -1.1477    1.3313    0.2691 H         1 <0>         0.1202
     32 H5         -2.3304   -0.5870    0.4988 H         1 <0>         0.1398
     33 H6         -2.2368   -1.3958   -1.0961 H         1 <0>         0.1452
     34 H7         -2.0357   -2.7637    1.3093 H         1 <0>         0.1240
     35 H8         -1.2516   -3.3206   -0.2002 H         1 <0>         0.1156
     36 H9          1.4569   -0.6700    0.5547 H         1 <0>         0.1470
     37 H10         0.1065   -0.1082    1.5880 H         1 <0>         0.1545
     38 H11         0.3071   -3.8327    4.1094 H         1 <0>         0.1134
     39 H12         1.0879   -4.2029    2.5533 H         1 <0>         0.1123
     40 H13         1.6701   -0.8621    2.9059 H         1 <0>         0.1247
     41 H14         3.7534    0.1805    3.7028 H         1 <0>         0.1344
     42 H15         5.3773   -1.1446    4.9956 H         1 <0>         0.1408
     43 H16         4.9171   -3.5119    5.4921 H         1 <0>         0.1453
     44 H17        -0.4238   -2.6302    5.1974 H         1 <0>         0.1473
     45 H18        -1.9050   -1.2047    6.5406 H         1 <0>         0.1528
     46 H19        -1.3975   -0.3667    1.6970 H         1 <0>         0.1363
     47 H20         0.0235   -0.9011   -1.2510 H         1 <0>         0.4344
@<TRIPOS>BOND
     1    1    2 1
     2    1   29 1
     3    1   30 1
     4    1   31 1
     5    2    7 1
     6    2    3 1
     7    2   47 1
     8    3    4 1
     9    3   32 1
    10    3   33 1
    11    4    5 1
    12    4   34 1
    13    4   35 1
    14    5    6 1
    15    5    7 1
    16    5    8 1
    17    7   36 1
    18    7   37 1
    19    8    9 1
    20    8   20 1
    21    9   10 1
    22    9   38 1
    23    9   39 1
    24   10   15 ar
    25   10   11 ar
    26   11   12 ar
    27   11   40 1
    28   12   13 ar
    29   12   41 1
    30   13   14 ar
    31   13   42 1
    32   14   15 ar
    33   14   43 1
    34   15   16 1
    35   16   17 1
    36   16   18 1
    37   16   19 1
    38   20   25 ar
    39   20   21 ar
    40   21   22 ar
    41   21   44 1
    42   22   23 ar
    43   22   45 1
    44   23   24 ar
    45   23   27 1
    46   24   25 ar
    47   24   26 1
    48   25   46 1
    49   27   28 3
@<TRIPOS>MOLECULE
CHEMBL558664__1
   46    48     0     0     0
SMALL
USER_CHARGES

@<TRIPOS>ATOM
      1 C1          0.1292    0.6429   -1.2533 C.3       1 <0>         0.0075
      2 N1          0.2325   -0.7950   -0.9712 N.3       1 <0>        -0.5082
      3 C2         -1.1123   -1.4004   -0.7919 C.3       1 <0>         0.0173
      4 C3         -0.8517   -2.6991    0.0011 C.3       1 <0>        -0.1411
      5 C4          0.4832   -2.4589    0.7361 C.3       1 <0>         0.1460
      6 H1          1.2276   -3.1883    0.4169 H         1 <0>         0.1090
      7 C5          0.9168   -1.0353    0.3254 C.3       1 <0>        -0.0065
      8 N2          0.2866   -2.5348    2.1858 N.pl3     1 <0>        -0.6045
      9 C6          0.9861   -3.5576    2.9673 C.3       1 <0>         0.1408
     10 C7          2.2497   -2.9726    3.5436 C.ar      1 <0>        -0.0600
     11 C8          2.5721   -1.6501    3.3018 C.ar      1 <0>        -0.1082
     12 C9          3.7310   -1.1135    3.8303 C.ar      1 <0>        -0.0823
     13 C10         4.5676   -1.8992    4.6012 C.ar      1 <0>        -0.1190
     14 C11         4.2449   -3.2210    4.8437 C.ar      1 <0>        -0.0679
     15 C12         3.0835   -3.7566    4.3185 C.ar      1 <0>        -0.1796
     16 C13         2.7289   -5.1964    4.5873 C.3       1 <0>         0.5069
     17 F1          3.7520   -5.7982    5.3278 F         1 <0>        -0.1739
     18 F2          1.5330   -5.2550    5.3109 F         1 <0>        -0.1756
     19 F3          2.5726   -5.8727    3.3726 F         1 <0>        -0.1759
     20 C14        -0.5648   -1.6352    2.8207 C.ar      1 <0>         0.2563
     21 C15        -0.8378   -1.7776    4.1786 C.ar      1 <0>        -0.1898
     22 C16        -1.6789   -0.8905    4.8103 C.ar      1 <0>        -0.0064
     23 C17        -2.2604    0.1557    4.0872 C.ar      1 <0>        -0.0792
     24 C18        -1.9842    0.2964    2.7227 C.ar      1 <0>         0.0534
     25 C19        -1.1362   -0.5929    2.0983 C.ar      1 <0>        -0.2204
     26 Cl1        -2.7033    1.5927    1.8192 Cl        1 <0>        -0.0495
     27 C20        -3.1365    1.0805    4.7413 C.1       1 <0>         0.2529
     28 N3         -3.8316    1.8140    5.2602 N.1       1 <0>        -0.4087
     29 H2          1.1280    1.0768   -1.2996 H         1 <0>         0.0732
     30 H3         -0.3756    0.7905   -2.2080 H         1 <0>         0.0755
     31 H4         -0.4415    1.1284   -0.4617 H         1 <0>         0.0331
     32 H5         -1.7578   -0.7309   -0.2234 H         1 <0>         0.0572
     33 H6         -1.5584   -1.6290   -1.7598 H         1 <0>         0.0899
     34 H7         -1.6535   -2.8716    0.7190 H         1 <0>         0.0827
     35 H8         -0.7624   -3.5463   -0.6788 H         1 <0>         0.0862
     36 H9          1.9984   -0.9891    0.1987 H         1 <0>         0.0906
     37 H10         0.5888   -0.3087    1.0687 H         1 <0>         0.0726
     38 H11         0.3419   -3.8998    3.7772 H         1 <0>         0.1032
     39 H12         1.2369   -4.3996    2.3221 H         1 <0>         0.1091
     40 H13         1.9185   -1.0363    2.6997 H         1 <0>         0.1350
     41 H14         3.9832   -0.0806    3.6409 H         1 <0>         0.1328
     42 H15         5.4736   -1.4801    5.0136 H         1 <0>         0.1360
     43 H16         4.8986   -3.8349    5.4456 H         1 <0>         0.1402
     44 H17        -0.3890   -2.5858    4.7369 H         1 <0>         0.1399
     45 H18        -1.8901   -1.0023    5.8636 H         1 <0>         0.1438
     46 H19        -0.9187   -0.4829    1.0462 H         1 <0>         0.1658
@<TRIPOS>BOND
     1    1    2 1
     2    1   29 1
     3    1   30 1
     4    1   31 1
     5    2    7 1
     6    2    3 1
     7    3    4 1
     8    3   32 1
     9    3   33 1
    10    4    5 1
    11    4   34 1
    12    4   35 1
    13    5    6 1
    14    5    7 1
    15    5    8 1
    16    7   36 1
    17    7   37 1
    18    8    9 1
    19    8   20 1
    20    9   10 1
    21    9   38 1
    22    9   39 1
    23   10   15 ar
    24   10   11 ar
    25   11   12 ar
    26   11   40 1
    27   12   13 ar
    28   12   41 1
    29   13   14 ar
    30   13   42 1
    31   14   15 ar
    32   14   43 1
    33   15   16 1
    34   16   17 1
    35   16   18 1
    36   16   19 1
    37   20   25 ar
    38   20   21 ar
    39   21   22 ar
    40   21   44 1
    41   22   23 ar
    42   22   45 1
    43   23   24 ar
    44   23   27 1
    45   24   25 ar
    46   24   26 1
    47   25   46 1
    48   27   28 3
@<TRIPOS>MOLECULE
CHEMBL366105
   60    62     0     0     0
SMALL
USER_CHARGES

@<TRIPOS>ATOM
      1 C1         -0.0263    1.5154   -0.0197 C.3       1 <0>        -0.1566
      2 C2          0.0054   -0.0142   -0.0043 C.3       1 <0>         0.1293
      3 C3         -1.3948   -0.5751    0.1455 C.2       1 <0>         0.5341
      4 O1         -2.3277   -0.4283   -0.6148 O.2       1 <0>        -0.4273
      5 N1         -1.3868   -1.2717    1.2992 N.am      1 <0>        -0.5148
      6 C4         -0.1886   -1.2293    1.8929 C.2       1 <0>         0.7087
      7 O2          0.0639   -1.7826    2.9451 O.2       1 <0>        -0.5094
      8 N2          0.7055   -0.5060    1.1950 N.am      1 <0>        -0.4825
      9 O3          2.0563   -0.2648    1.5446 O.3       1 <0>        -0.0640
     10 C5          2.2508    0.9074    2.3383 C.3       1 <0>         0.0151
     11 C6          3.7391    1.0678    2.6547 C.3       1 <0>         0.0718
     12 O4          4.4604    1.3068    1.4445 O.3       1 <0>        -0.3835
     13 C7          5.8677    1.4720    1.6295 C.3       1 <0>         0.0670
     14 C8          6.5344    1.7207    0.2750 C.3       1 <0>        -0.0764
     15 C9          8.0185    1.8950    0.4701 C.ar      1 <0>        -0.1037
     16 C10         8.5397    3.1570    0.7049 C.ar      1 <0>        -0.0678
     17 C11         9.8975    3.3294    0.8852 C.ar      1 <0>        -0.1526
     18 C12        10.7502    2.2367    0.8326 C.ar      1 <0>         0.1714
     19 C13        10.2269    0.9584    0.5957 C.ar      1 <0>        -0.1692
     20 C14         8.8503    0.7977    0.4198 C.ar      1 <0>        -0.0643
     21 C15        11.1240   -0.2114    0.5375 C.2       1 <0>         0.5616
     22 O5         12.3210   -0.0681    0.6953 O.2       1 <0>        -0.5225
     23 N3         10.6165   -1.4390    0.3095 N.am      1 <0>        -0.8530
     24 O6         12.0847    2.4046    1.0091 O.3       1 <0>        -0.4776
     25 C16        -2.4946   -1.9541    1.8128 C.ar      1 <0>         0.1618
     26 C17        -2.3566   -2.7452    2.9480 C.ar      1 <0>        -0.1037
     27 C18        -3.4448   -3.4185    3.4567 C.ar      1 <0>        -0.0459
     28 C19        -4.6894   -3.3056    2.8306 C.ar      1 <0>         0.0201
     29 C20        -4.8241   -2.5093    1.6902 C.ar      1 <0>        -0.1204
     30 C21        -3.7319   -1.8350    1.1903 C.ar      1 <0>        -0.0926
     31 C22        -6.1636   -2.3846    1.0111 C.3       1 <0>         0.5070
     32 F1         -6.0469   -1.5408   -0.0987 F         1 <0>        -0.1657
     33 F2         -6.5939   -3.6484    0.5929 F         1 <0>        -0.1681
     34 F3         -7.0934   -1.8487    1.9086 F         1 <0>        -0.1685
     35 C23        -5.8233   -4.0045    3.3561 C.1       1 <0>         0.2297
     36 N4         -6.7229   -4.5590    3.7730 N.1       1 <0>        -0.3698
     37 C24         0.6706   -0.5501   -1.2736 C.3       1 <0>        -0.1462
     38 H1          0.9937    1.8999   -0.0236 H         1 <0>         0.0898
     39 H2         -0.5475    1.8590   -0.9132 H         1 <0>         0.0963
     40 H3         -0.5475    1.8770    0.8666 H         1 <0>         0.0695
     41 H4          1.9001    1.7808    1.7886 H         1 <0>         0.0789
     42 H5          1.6897    0.8139    3.2681 H         1 <0>         0.0847
     43 H6          3.8777    1.9101    3.3326 H         1 <0>         0.0801
     44 H7          4.1107    0.1576    3.1254 H         1 <0>         0.0671
     45 H8          6.0504    2.3226    2.2861 H         1 <0>         0.0539
     46 H9          6.2834    0.5702    2.0789 H         1 <0>         0.0539
     47 H10         6.3516    0.8701   -0.3816 H         1 <0>         0.0851
     48 H11         6.1187    2.6226   -0.1744 H         1 <0>         0.0857
     49 H12         7.8799    4.0110    0.7468 H         1 <0>         0.1343
     50 H13        10.2964    4.3165    1.0671 H         1 <0>         0.1393
     51 H14         8.4391   -0.1848    0.2405 H         1 <0>         0.1312
     52 H15         9.6616   -1.5534    0.1837 H         1 <0>         0.3995
     53 H16        11.2063   -2.2082    0.2713 H         1 <0>         0.4068
     54 H17        12.3717    2.3335    1.9298 H         1 <0>         0.3978
     55 H18        -1.3946   -2.8319    3.4313 H         1 <0>         0.1834
     56 H19        -3.3367   -4.0333    4.3380 H         1 <0>         0.1587
     57 H20        -3.8361   -1.2162    0.3114 H         1 <0>         0.1780
     58 H21         1.6965   -0.1858   -1.3277 H         1 <0>         0.0917
     59 H22         0.6728   -1.6398   -1.2503 H         1 <0>         0.0721
     60 H23         0.1165   -0.2064   -2.1470 H         1 <0>         0.0907
@<TRIPOS>BOND
     1    1    2 1
     2    1   38 1
     3    1   39 1
     4    1   40 1
     5    2    8 1
     6    2    3 1
     7    2   37 1
     8    3    4 2
     9    3    5 am
    10    5    6 am
    11    5   25 1
    12    6    7 2
    13    6    8 am
    14    8    9 1
    15    9   10 1
    16   10   11 1
    17   10   41 1
    18   10   42 1
    19   11   12 1
    20   11   43 1
    21   11   44 1
    22   12   13 1
    23   13   14 1
    24   13   45 1
    25   13   46 1
    26   14   15 1
    27   14   47 1
    28   14   48 1
    29   15   20 ar
    30   15   16 ar
    31   16   17 ar
    32   16   49 1
    33   17   18 ar
    34   17   50 1
    35   18   19 ar
    36   18   24 1
    37   19   20 ar
    38   19   21 1
    39   20   51 1
    40   21   22 2
    41   21   23 am
    42   23   52 1
    43   23   53 1
    44   24   54 1
    45   25   30 ar
    46   25   26 ar
    47   26   27 ar
    48   26   55 1
    49   27   28 ar
    50   27   56 1
    51   28   29 ar
    52   28   35 1
    53   29   30 ar
    54   29   31 1
    55   30   57 1
    56   31   32 1
    57   31   33 1
    58   31   34 1
    59   35   36 3
    60   37   58 1
    61   37   59 1
    62   37   60 1
@<TRIPOS>MOLECULE
CHEMBL1210910
   47    50     0     0     0
SMALL
USER_CHARGES

@<TRIPOS>ATOM
      1 C1          0.0102    1.4953    0.1215 C.3       1 <0>        -0.1385
      2 C2          0.0231   -0.0335    0.0599 C.3       1 <0>         0.1212
      3 C3         -1.3957   -0.6230    0.0891 C.3       1 <0>         0.0244
      4 N1         -1.3114   -2.0754   -0.1255 N.3       1 <0>        -0.3678
      5 C4         -0.3930   -2.7030    0.8363 C.3       1 <0>         0.0225
      6 C5          0.9666   -1.9905    0.7645 C.3       1 <0>         0.1210
      7 O1          0.7547   -0.6165    1.1625 O.3       1 <0>        -0.3465
      8 C6          1.3792   -1.9019   -0.7230 C.3       1 <0>        -0.1320
      9 H1          1.0641   -2.7677   -1.3054 H         1 <0>         0.1573
     10 C7          0.7443   -0.5586   -1.2031 C.3       1 <0>        -0.1341
     11 H2          0.0751   -0.6880   -2.0538 H         1 <0>         0.1561
     12 C8          1.9334    0.3280   -1.4962 C.2       1 <0>         0.5420
     13 O2          1.8732    1.4698   -1.8991 O.2       1 <0>        -0.4564
     14 N2          3.0623   -0.3432   -1.2413 N.am      1 <0>        -0.5436
     15 C9          2.8659   -1.6405   -0.8082 C.2       1 <0>         0.5415
     16 O3          3.7343   -2.4365   -0.5222 O.2       1 <0>        -0.4390
     17 C10         4.3318    0.2173   -1.4176 C.ar      1 <0>         0.1409
     18 C11         4.7800    0.5307   -2.6961 C.ar      1 <0>        -0.0677
     19 C12         6.0293    1.0822   -2.8738 C.ar      1 <0>        -0.0560
     20 C13         6.8469    1.3272   -1.7670 C.ar      1 <0>         0.0396
     21 C14         6.3927    1.0114   -0.4839 C.ar      1 <0>        -0.1304
     22 C15         5.1398    0.4648   -0.3138 C.ar      1 <0>        -0.0536
     23 C16         7.2705    1.2732    0.7129 C.3       1 <0>         0.5070
     24 F1          6.6026    0.8772    1.8766 F         1 <0>        -0.1677
     25 F2          8.4592    0.5463    0.5872 F         1 <0>        -0.1673
     26 F3          7.5645    2.6390    0.7857 F         1 <0>        -0.1676
     27 C17         8.1468    1.9001   -1.9476 C.1       1 <0>         0.2271
     28 N3          9.1780    2.3546   -2.0908 N.1       1 <0>        -0.3636
     29 C18         2.0234   -2.6834    1.6270 C.3       1 <0>        -0.1390
     30 O4         -2.6366   -2.6922   -0.0642 O.3       1 <0>        -0.2525
     31 C19        -3.0206   -3.3650   -1.2650 C.3       1 <0>         0.0382
     32 H3          1.0345    1.8679    0.1111 H         1 <0>         0.0761
     33 H4         -0.5285    1.8891   -0.7403 H         1 <0>         0.0890
     34 H5         -0.4845    1.8178    1.0376 H         1 <0>         0.0770
     35 H6         -1.8544   -0.4229    1.0574 H         1 <0>         0.0703
     36 H7         -1.9952   -0.1713   -0.7013 H         1 <0>         0.1031
     37 H8         -0.8004   -2.6114    1.8432 H         1 <0>         0.0705
     38 H9         -0.2667   -3.7564    0.5864 H         1 <0>         0.1027
     39 H10         4.1477    0.3410   -3.5509 H         1 <0>         0.1514
     40 H11         6.3770    1.3247   -3.8671 H         1 <0>         0.1593
     41 H12         4.7864    0.2241    0.6780 H         1 <0>         0.1549
     42 H13         2.1670   -3.7049    1.2748 H         1 <0>         0.0895
     43 H14         2.9648   -2.1387    1.5556 H         1 <0>         0.0743
     44 H15         1.6912   -2.7004    2.6650 H         1 <0>         0.0792
     45 H16        -3.0346   -2.6542   -2.0912 H         1 <0>         0.0476
     46 H17        -2.3058   -4.1591   -1.4811 H         1 <0>         0.0469
     47 H18        -4.0142   -3.7950   -1.1388 H         1 <0>         0.0929
@<TRIPOS>BOND
     1    1    2 1
     2    1   32 1
     3    1   33 1
     4    1   34 1
     5    2    7 1
     6    2   10 1
     7    2    3 1
     8    3    4 1
     9    3   35 1
    10    3   36 1
    11    4    5 1
    12    4   30 1
    13    5    6 1
    14    5   37 1
    15    5   38 1
    16    6    7 1
    17    6    8 1
    18    6   29 1
    19    8    9 1
    20    8   15 1
    21    8   10 1
    22   10   11 1
    23   10   12 1
    24   12   13 2
    25   12   14 am
    26   14   15 am
    27   14   17 1
    28   15   16 2
    29   17   22 ar
    30   17   18 ar
    31   18   19 ar
    32   18   39 1
    33   19   20 ar
    34   19   40 1
    35   20   21 ar
    36   20   27 1
    37   21   22 ar
    38   21   23 1
    39   22   41 1
    40   23   24 1
    41   23   25 1
    42   23   26 1
    43   27   28 3
    44   29   42 1
    45   29   43 1
    46   29   44 1
    47   30   31 1
    48   31   45 1
    49   31   46 1
    50   31   47 1
@<TRIPOS>MOLECULE
CHEMBL367364
   36    39     0     0     0
SMALL
USER_CHARGES

@<TRIPOS>ATOM
      1 C1          1.5364    1.4085   -1.1455 C.ar      1 <0>        -0.1052
      2 C2          1.1720    2.0859    0.0039 C.ar      1 <0>        -0.0603
      3 C3          0.8292    1.3835    1.1443 C.ar      1 <0>        -0.1721
      4 C4          0.8497    0.0022    1.1387 C.ar      1 <0>        -0.0518
      5 C5          1.2145   -0.6804   -0.0136 C.ar      1 <0>         0.1094
      6 C6          1.5583    0.0277   -1.1573 C.ar      1 <0>        -0.0676
      7 N1          1.2368   -2.0822   -0.0222 N.am      1 <0>        -0.5341
      8 C7          2.3687   -2.7872   -0.1305 C.2       1 <0>         0.5370
      9 O1          3.4807   -2.3151   -0.2312 O.2       1 <0>        -0.4665
     10 C8          2.0456   -4.2639   -0.1068 C.3       1 <0>        -0.1231
     11 H1          2.4045   -4.7931   -0.9896 H         1 <0>         0.1383
     12 C9          0.4972   -4.2895    0.0355 C.3       1 <0>        -0.1222
     13 H2          0.0010   -4.8316   -0.7695 H         1 <0>         0.1387
     14 C10         0.1282   -2.8240    0.0829 C.2       1 <0>         0.5368
     15 O2         -0.9975   -2.3887    0.1956 O.2       1 <0>        -0.4650
     16 C11         0.2454   -4.9186    1.4387 C.3       1 <0>        -0.0809
     17 C12         0.7143   -3.8263    2.4476 C.3       1 <0>        -0.1373
     18 C13         2.2534   -3.7993    2.3063 C.3       1 <0>        -0.1379
     19 C14         2.5870   -4.8648    1.2252 C.3       1 <0>        -0.0818
     20 C15         1.4428   -5.9289    1.5261 C.3       1 <0>        -0.1173
     21 C16         0.4332    2.1254    2.3948 C.3       1 <0>         0.5108
     22 F1          0.4884    3.5029    2.1570 F         1 <0>        -0.1730
     23 F2         -0.8695    1.7665    2.7572 F         1 <0>        -0.1724
     24 F3          1.3132    1.7954    3.4312 F         1 <0>        -0.1740
     25 H3          1.7997    1.9599   -2.0361 H         1 <0>         0.1479
     26 H4          1.1556    3.1657    0.0107 H         1 <0>         0.1482
     27 H5          0.5825   -0.5460    2.0300 H         1 <0>         0.1363
     28 H6          1.8427   -0.5007   -2.0552 H         1 <0>         0.1378
     29 H7         -0.7484   -5.3358    1.6014 H         1 <0>         0.1202
     30 H8          0.2913   -2.8574    2.1825 H         1 <0>         0.0616
     31 H9          0.4307   -4.1006    3.4637 H         1 <0>         0.0832
     32 H10         2.5871   -2.8172    1.9712 H         1 <0>         0.0622
     33 H11         2.7266   -4.0597    3.2531 H         1 <0>         0.0828
     34 H12         3.6122   -5.2339    1.1983 H         1 <0>         0.1222
     35 H13         1.5413   -6.3608    2.5220 H         1 <0>         0.0858
     36 H14         1.3856   -6.6981    0.7559 H         1 <0>         0.0832
@<TRIPOS>BOND
     1    1    6 ar
     2    1    2 ar
     3    1   25 1
     4    2    3 ar
     5    2   26 1
     6    3    4 ar
     7    3   21 1
     8    4    5 ar
     9    4   27 1
    10    5    6 ar
    11    5    7 1
    12    6   28 1
    13    7   14 am
    14    7    8 am
    15    8    9 2
    16    8   10 1
    17   10   11 1
    18   10   19 1
    19   10   12 1
    20   12   13 1
    21   12   14 1
    22   12   16 1
    23   14   15 2
    24   16   20 1
    25   16   17 1
    26   16   29 1
    27   17   18 1
    28   17   30 1
    29   17   31 1
    30   18   19 1
    31   18   32 1
    32   18   33 1
    33   19   20 1
    34   19   34 1
    35   20   35 1
    36   20   36 1
    37   21   22 1
    38   21   23 1
    39   21   24 1
@<TRIPOS>MOLECULE
CHEMBL367364__1
   36    39     0     0     0
SMALL
USER_CHARGES

@<TRIPOS>ATOM
      1 C1          1.5365    1.4085   -1.1455 C.ar      1 <0>        -0.1055
      2 C2          1.1720    2.0859    0.0039 C.ar      1 <0>        -0.0602
      3 C3          0.8291    1.3835    1.1442 C.ar      1 <0>        -0.1721
      4 C4          0.8496    0.0022    1.1386 C.ar      1 <0>        -0.0510
      5 C5          1.2145   -0.6804   -0.0136 C.ar      1 <0>         0.1087
      6 C6          1.5585    0.0277   -1.1572 C.ar      1 <0>        -0.0676
      7 N1          1.2368   -2.0822   -0.0222 N.am      1 <0>        -0.5315
      8 C7          2.3688   -2.7872   -0.1305 C.2       1 <0>         0.5312
      9 O1          3.4808   -2.3150   -0.2310 O.2       1 <0>        -0.4637
     10 C8          2.0458   -4.2640   -0.1080 C.3       1 <0>        -0.1204
     11 H1          2.4032   -4.7922   -0.9920 H         1 <0>         0.1386
     12 C9          0.4976   -4.2893    0.0366 C.3       1 <0>        -0.1194
     13 H2          0.0001   -4.8326   -0.7668 H         1 <0>         0.1392
     14 C10         0.1283   -2.8240    0.0829 C.2       1 <0>         0.5307
     15 O2         -0.9975   -2.3887    0.1953 O.2       1 <0>        -0.4622
     16 C11         0.2479   -4.9166    1.4411 C.3       1 <0>        -0.0829
     17 C12         0.6517   -6.4138    1.2790 C.3       1 <0>        -0.1188
     18 C13         2.1905   -6.3896    1.1342 C.3       1 <0>        -0.1204
     19 C14         2.5891   -4.8666    1.2224 C.3       1 <0>        -0.0851
     20 C15         1.4856   -4.3653    2.2325 C.3       1 <0>        -0.1373
     21 C16         0.4329    2.1253    2.3947 C.3       1 <0>         0.5110
     22 F1          0.4881    3.5029    2.1569 F         1 <0>        -0.1731
     23 F2         -0.8698    1.7665    2.7570 F         1 <0>        -0.1724
     24 F3          1.3128    1.7954    3.4312 F         1 <0>        -0.1739
     25 H3          1.7999    1.9599   -2.0360 H         1 <0>         0.1478
     26 H4          1.1556    3.1657    0.0107 H         1 <0>         0.1482
     27 H5          0.5823   -0.5460    2.0299 H         1 <0>         0.1370
     28 H6          1.8429   -0.5007   -2.0552 H         1 <0>         0.1376
     29 H7         -0.7299   -4.7220    1.8818 H         1 <0>         0.1167
     30 H8          0.3620   -6.9833    2.1620 H         1 <0>         0.0759
     31 H9          0.1925   -6.8366    0.3854 H         1 <0>         0.0740
     32 H10         2.6573   -6.9478    1.9457 H         1 <0>         0.0749
     33 H11         2.4879   -6.8002    0.1692 H         1 <0>         0.0728
     34 H12         3.6321   -4.6487    1.4521 H         1 <0>         0.1202
     35 H13         1.4751   -3.2776    2.3017 H         1 <0>         0.0622
     36 H14         1.5848   -4.8316    3.2127 H         1 <0>         0.0909
@<TRIPOS>BOND
     1    1    6 ar
     2    1    2 ar
     3    1   25 1
     4    2    3 ar
     5    2   26 1
     6    3    4 ar
     7    3   21 1
     8    4    5 ar
     9    4   27 1
    10    5    6 ar
    11    5    7 1
    12    6   28 1
    13    7   14 am
    14    7    8 am
    15    8    9 2
    16    8   10 1
    17   10   11 1
    18   10   19 1
    19   10   12 1
    20   12   13 1
    21   12   14 1
    22   12   16 1
    23   14   15 2
    24   16   20 1
    25   16   17 1
    26   16   29 1
    27   17   18 1
    28   17   30 1
    29   17   31 1
    30   18   19 1
    31   18   32 1
    32   18   33 1
    33   19   20 1
    34   19   34 1
    35   20   35 1
    36   20   36 1
    37   21   22 1
    38   21   23 1
    39   21   24 1
@<TRIPOS>MOLECULE
CHEMBL1165642
   54    57     0     0     0
SMALL
USER_CHARGES

@<TRIPOS>ATOM
      1 C1         -0.0167    1.3792    0.0096 C.ar      1 <0>        -0.1105
      2 C2          1.1686    2.0925    0.0021 C.ar      1 <0>        -0.1184
      3 C3          2.3774    1.4271   -0.0129 C.ar      1 <0>        -0.1040
      4 C4          2.4026    0.0331   -0.0206 C.ar      1 <0>        -0.0620
      5 C5          1.2048   -0.6804   -0.0130 C.ar      1 <0>        -0.1041
      6 C6          0.0021   -0.0041    0.0020 C.ar      1 <0>        -0.1189
      7 C7          3.6979   -0.6876   -0.0373 C.ar      1 <0>        -0.0038
      8 C8          4.8947    0.0304   -0.0395 C.ar      1 <0>        -0.1255
      9 C9          6.0939   -0.6339   -0.0545 C.ar      1 <0>        -0.0526
     10 C10         6.1173   -2.0337   -0.0675 C.ar      1 <0>        -0.1765
     11 C11         4.9154   -2.7517   -0.0653 C.ar      1 <0>        -0.0680
     12 C12         3.7187   -2.0831   -0.0449 C.ar      1 <0>        -0.1262
     13 C13         7.4017   -2.7483   -0.0841 C.2       1 <0>         0.3946
     14 O1          8.4422   -2.1253   -0.0864 O.2       1 <0>        -0.4361
     15 C14         7.4255   -4.2551   -0.0981 C.3       1 <0>        -0.1732
     16 C15         8.8758   -4.7421   -0.1138 C.3       1 <0>         0.1988
     17 C16         8.9004   -6.2425   -0.2517 C.ar      1 <0>        -0.0815
     18 C17         8.6746   -7.0419    0.8537 C.ar      1 <0>        -0.1105
     19 C18         8.6968   -8.4183    0.7288 C.ar      1 <0>        -0.0870
     20 C19         8.9454   -8.9971   -0.5015 C.ar      1 <0>        -0.1482
     21 C20         9.1716   -8.1979   -1.6089 C.ar      1 <0>         0.1046
     22 C21         9.1430   -6.8190   -1.4838 C.ar      1 <0>        -0.1443
     23 F1          9.4151   -8.7626   -2.8119 F         1 <0>        -0.1358
     24 N1          9.5343   -4.3557    1.1365 N.pl3     1 <0>        -0.7139
     25 C22        10.9220   -4.2027    1.1767 C.ar      1 <0>         0.2782
     26 C23        11.6788   -4.4109    0.0305 C.ar      1 <0>        -0.1926
     27 C24        13.0507   -4.2582    0.0736 C.ar      1 <0>        -0.0040
     28 C25        13.6712   -3.8986    1.2560 C.ar      1 <0>        -0.1115
     29 C26        12.9208   -3.6906    2.3988 C.ar      1 <0>        -0.0047
     30 C27        11.5480   -3.8364    2.3614 C.ar      1 <0>        -0.1939
     31 N2         15.1417   -3.7364    1.2985 N.pl3     1 <0>         0.0453
     32 O2         15.7990   -3.9184    0.3003 O.2       1 <0>        -0.1743
     33 O3         15.6855   -3.4221    2.3315 O.3       1 <0>        -0.1743
     34 H1         -0.9603    1.9042    0.0260 H         1 <0>         0.1256
     35 H2          1.1478    3.1723    0.0077 H         1 <0>         0.1271
     36 H3          3.3021    1.9850   -0.0191 H         1 <0>         0.1270
     37 H4          1.2182   -1.7603   -0.0193 H         1 <0>         0.1270
     38 H5         -0.9264   -0.5557    0.0079 H         1 <0>         0.1270
     39 H6          4.8762    1.1102   -0.0298 H         1 <0>         0.1332
     40 H7          7.0197   -0.0779   -0.0565 H         1 <0>         0.1361
     41 H8          4.9310   -3.8316   -0.0757 H         1 <0>         0.1340
     42 H9          2.7914   -2.6366   -0.0387 H         1 <0>         0.1334
     43 H10         6.9244   -4.6347    0.7923 H         1 <0>         0.1110
     44 H11         6.9106   -4.6183   -0.9875 H         1 <0>         0.1215
     45 H12         9.4014   -4.2912   -0.9556 H         1 <0>         0.1040
     46 H13         8.4810   -6.5904    1.8155 H         1 <0>         0.1270
     47 H14         8.5203   -9.0416    1.5929 H         1 <0>         0.1351
     48 H15         8.9634  -10.0726   -0.5987 H         1 <0>         0.1376
     49 H16         9.3150   -6.1944   -2.3480 H         1 <0>         0.1375
     50 H17         9.0065   -4.2061    1.9365 H         1 <0>         0.4058
     51 H18        11.1949   -4.6921   -0.8931 H         1 <0>         0.1407
     52 H19        13.6397   -4.4203   -0.8170 H         1 <0>         0.1504
     53 H20        13.4086   -3.4101    3.3207 H         1 <0>         0.1513
     54 H21        10.9622   -3.6697    3.2533 H         1 <0>         0.1425
@<TRIPOS>BOND
     1    1    6 ar
     2    1    2 ar
     3    1   34 1
     4    2    3 ar
     5    2   35 1
     6    3    4 ar
     7    3   36 1
     8    4    5 ar
     9    4    7 1
    10    5    6 ar
    11    5   37 1
    12    6   38 1
    13    7   12 ar
    14    7    8 ar
    15    8    9 ar
    16    8   39 1
    17    9   10 ar
    18    9   40 1
    19   10   11 ar
    20   10   13 1
    21   11   12 ar
    22   11   41 1
    23   12   42 1
    24   13   14 2
    25   13   15 1
    26   15   16 1
    27   15   43 1
    28   15   44 1
    29   16   17 1
    30   16   24 1
    31   16   45 1
    32   17   22 ar
    33   17   18 ar
    34   18   19 ar
    35   18   46 1
    36   19   20 ar
    37   19   47 1
    38   20   21 ar
    39   20   48 1
    40   21   22 ar
    41   21   23 1
    42   22   49 1
    43   24   25 1
    44   24   50 1
    45   25   30 ar
    46   25   26 ar
    47   26   27 ar
    48   26   51 1
    49   27   28 ar
    50   27   52 1
    51   28   29 ar
    52   28   31 1
    53   29   30 ar
    54   29   53 1
    55   30   54 1
    56   31   32 2
    57   31   33 1
@<TRIPOS>MOLECULE
CHEMBL1165642__1
   54    57     0     0     0
SMALL
USER_CHARGES

@<TRIPOS>ATOM
      1 C1         -0.0167    1.3792    0.0096 C.ar      1 <0>        -0.1105
      2 C2          1.1686    2.0925    0.0021 C.ar      1 <0>        -0.1184
      3 C3          2.3774    1.4271   -0.0129 C.ar      1 <0>        -0.1040
      4 C4          2.4026    0.0331   -0.0206 C.ar      1 <0>        -0.0620
      5 C5          1.2048   -0.6804   -0.0130 C.ar      1 <0>        -0.1041
      6 C6          0.0021   -0.0041    0.0020 C.ar      1 <0>        -0.1189
      7 C7          3.6979   -0.6876   -0.0373 C.ar      1 <0>        -0.0038
      8 C8          4.8947    0.0304   -0.0395 C.ar      1 <0>        -0.1255
      9 C9          6.0939   -0.6339   -0.0545 C.ar      1 <0>        -0.0526
     10 C10         6.1173   -2.0337   -0.0675 C.ar      1 <0>        -0.1765
     11 C11         4.9154   -2.7517   -0.0653 C.ar      1 <0>        -0.0680
     12 C12         3.7187   -2.0831   -0.0449 C.ar      1 <0>        -0.1261
     13 C13         7.4017   -2.7483   -0.0841 C.2       1 <0>         0.3946
     14 O1          8.4422   -2.1253   -0.0864 O.2       1 <0>        -0.4361
     15 C14         7.4255   -4.2551   -0.0981 C.3       1 <0>        -0.1732
     16 C15         8.8758   -4.7421   -0.1138 C.3       1 <0>         0.1988
     17 C16         8.9023   -6.2448   -0.0040 C.ar      1 <0>        -0.0817
     18 C17         8.6705   -7.0237   -1.1227 C.ar      1 <0>        -0.1103
     19 C18         8.6944   -8.4021   -1.0235 C.ar      1 <0>        -0.0871
     20 C19         8.9499   -9.0036    0.1945 C.ar      1 <0>        -0.1482
     21 C20         9.1822   -8.2248    1.3152 C.ar      1 <0>         0.1045
     22 C21         9.1640   -6.8438    1.2133 C.ar      1 <0>        -0.1443
     23 F1          9.4316   -8.8116    2.5063 F         1 <0>        -0.1358
     24 N1          9.5149   -4.3326   -1.3669 N.pl3     1 <0>        -0.7140
     25 C22        10.9019   -4.1787   -1.4258 C.ar      1 <0>         0.2782
     26 C23        11.6774   -4.4190   -0.2986 C.ar      1 <0>        -0.1927
     27 C24        13.0486   -4.2663   -0.3604 C.ar      1 <0>        -0.0041
     28 C25        13.6496   -3.8747   -1.5426 C.ar      1 <0>        -0.1113
     29 C26        12.8806   -3.6347   -2.6665 C.ar      1 <0>        -0.0047
     30 C27        11.5094   -3.7906   -2.6131 C.ar      1 <0>        -0.1939
     31 N2         15.1194   -3.7116   -1.6049 N.pl3     1 <0>         0.0452
     32 O2         15.7930   -3.9207   -0.6230 O.2       1 <0>        -0.1742
     33 O3         15.6463   -3.3693   -2.6378 O.3       1 <0>        -0.1743
     34 H1         -0.9603    1.9042    0.0260 H         1 <0>         0.1256
     35 H2          1.1478    3.1723    0.0077 H         1 <0>         0.1271
     36 H3          3.3021    1.9850   -0.0191 H         1 <0>         0.1270
     37 H4          1.2182   -1.7603   -0.0193 H         1 <0>         0.1270
     38 H5         -0.9264   -0.5557    0.0079 H         1 <0>         0.1270
     39 H6          4.8762    1.1102   -0.0298 H         1 <0>         0.1332
     40 H7          7.0197   -0.0779   -0.0565 H         1 <0>         0.1361
     41 H8          4.9310   -3.8316   -0.0757 H         1 <0>         0.1340
     42 H9          2.7914   -2.6366   -0.0387 H         1 <0>         0.1334
     43 H10         6.9244   -4.6347    0.7923 H         1 <0>         0.1215
     44 H11         6.9106   -4.6183   -0.9875 H         1 <0>         0.1110
     45 H12         9.4144   -4.3067    0.7279 H         1 <0>         0.1039
     46 H13         8.4701   -6.5546   -2.0747 H         1 <0>         0.1270
     47 H14         8.5132   -9.0095   -1.8980 H         1 <0>         0.1351
     48 H15         8.9679  -10.0806    0.2719 H         1 <0>         0.1376
     49 H16         9.3494   -6.2353    2.0861 H         1 <0>         0.1375
     50 H17         8.9748   -4.1685   -2.1557 H         1 <0>         0.4058
     51 H18        11.2085   -4.7245    0.6251 H         1 <0>         0.1407
     52 H19        13.6520   -4.4526    0.5157 H         1 <0>         0.1504
     53 H20        13.3532   -3.3286   -3.5882 H         1 <0>         0.1513
     54 H21        10.9098   -3.6069   -3.4924 H         1 <0>         0.1425
@<TRIPOS>BOND
     1    1    6 ar
     2    1    2 ar
     3    1   34 1
     4    2    3 ar
     5    2   35 1
     6    3    4 ar
     7    3   36 1
     8    4    5 ar
     9    4    7 1
    10    5    6 ar
    11    5   37 1
    12    6   38 1
    13    7   12 ar
    14    7    8 ar
    15    8    9 ar
    16    8   39 1
    17    9   10 ar
    18    9   40 1
    19   10   11 ar
    20   10   13 1
    21   11   12 ar
    22   11   41 1
    23   12   42 1
    24   13   14 2
    25   13   15 1
    26   15   16 1
    27   15   43 1
    28   15   44 1
    29   16   17 1
    30   16   24 1
    31   16   45 1
    32   17   22 ar
    33   17   18 ar
    34   18   19 ar
    35   18   46 1
    36   19   20 ar
    37   19   47 1
    38   20   21 ar
    39   20   48 1
    40   21   22 ar
    41   21   23 1
    42   22   49 1
    43   24   25 1
    44   24   50 1
    45   25   30 ar
    46   25   26 ar
    47   26   27 ar
    48   26   51 1
    49   27   28 ar
    50   27   52 1
    51   28   29 ar
    52   28   31 1
    53   29   30 ar
    54   29   53 1
    55   30   54 1
    56   31   32 2
    57   31   33 1
@<TRIPOS>MOLECULE
CHEMBL551270
   67    72     0     0     0
SMALL
USER_CHARGES

@<TRIPOS>ATOM
      1 C1         -1.2924    2.6624    0.4343 C.3       1 <0>        -0.1350
      2 C2         -0.7335    1.2660    0.1542 C.3       1 <0>        -0.0548
      3 C3          0.0434    1.2754   -1.1471 C.3       1 <0>        -0.1017
      4 C4          1.1033    2.3846   -1.0360 C.3       1 <0>        -0.1172
      5 C5          2.0144    2.1674    0.1672 C.3       1 <0>        -0.0639
      6 H1          2.5828    1.2496    0.0161 H         1 <0>         0.0700
      7 C6          1.2131    2.0437    1.4717 C.3       1 <0>        -0.0735
      8 H2          0.6632    2.9658    1.6598 H         1 <0>         0.0919
      9 C7          0.2573    0.8594    1.2800 C.3       1 <0>        -0.0812
     10 H3          0.8035   -0.0418    1.0014 H         1 <0>         0.0819
     11 C8         -0.7054    0.5845    2.4391 C.3       1 <0>        -0.0990
     12 C9         -1.8561   -0.1639    1.7641 C.2       1 <0>        -0.1319
     13 C10        -2.7054   -0.9963    2.3498 C.2       1 <0>        -0.0991
     14 C11        -2.6987   -1.1455    3.8204 C.ar      1 <0>        -0.1618
     15 C12        -1.9268   -0.3010    4.6255 C.ar      1 <0>         0.1288
     16 N1         -1.9508   -0.4694    5.9362 N.ar      1 <0>        -0.5095
     17 C13        -2.6872   -1.4153    6.4851 C.ar      1 <0>         0.3446
     18 N2         -3.4290   -2.2326    5.7641 N.ar      1 <0>        -0.5135
     19 C14        -3.4685   -2.1315    4.4468 C.ar      1 <0>         0.1614
     20 C15        -2.6803   -1.5674    7.9844 C.3       1 <0>        -0.1070
     21 C16        -3.3807   -2.7936    8.5733 C.3       1 <0>        -0.1525
     22 C17        -4.0142   -1.4083    8.7168 C.3       1 <0>        -0.1541
     23 C18        -1.8425    0.2287    0.2901 C.3       1 <0>         0.1478
     24 H4         -1.6235   -0.6408   -0.3296 H         1 <0>         0.0675
     25 O1         -3.0996    0.7977   -0.0815 O.3       1 <0>        -0.5484
     26 C19         2.1805    1.7679    2.6248 C.3       1 <0>        -0.1224
     27 C20         3.1589    2.9369    2.7511 C.3       1 <0>        -0.1288
     28 C21         3.9447    3.1002    1.4541 C.3       1 <0>         0.1544
     29 H5          4.5982    3.9678    1.5449 H         1 <0>         0.0729
     30 C22         2.9931    3.3370    0.2965 C.3       1 <0>        -0.0475
     31 C23         3.8053    3.4272   -0.9752 C.2       1 <0>        -0.0843
     32 C24         4.8572    2.6231   -1.1289 C.2       1 <0>        -0.1958
     33 C25         5.1892    1.6649   -0.0587 C.2       1 <0>         0.5465
     34 O2          5.8389    0.6671   -0.3063 O.2       1 <0>        -0.5361
     35 N3          4.7642    1.9157    1.1999 N.am      1 <0>        -0.6082
     36 C26         5.1241    1.0189    2.3011 C.3       1 <0>         0.0828
     37 C27         2.2175    4.6354    0.5278 C.3       1 <0>        -0.1442
     38 H6         -0.4736    3.3810    0.4703 H         1 <0>         0.0635
     39 H7         -1.9864    2.9418   -0.3584 H         1 <0>         0.0625
     40 H8         -1.8154    2.6593    1.3906 H         1 <0>         0.0541
     41 H9          0.5294    0.3112   -1.2962 H         1 <0>         0.0633
     42 H10        -0.6285    1.4860   -1.9791 H         1 <0>         0.0699
     43 H11         1.7072    2.3925   -1.9434 H         1 <0>         0.0643
     44 H12         0.6023    3.3472   -0.9344 H         1 <0>         0.0744
     45 H13        -0.2299   -0.0409    3.1946 H         1 <0>         0.0835
     46 H14        -1.0577    1.5185    2.8769 H         1 <0>         0.0927
     47 H15        -3.4023   -1.5655    1.7524 H         1 <0>         0.1300
     48 H16        -1.3209    0.4759    4.1831 H         1 <0>         0.1902
     49 H17        -4.0822   -2.8018    3.8632 H         1 <0>         0.1702
     50 H18        -1.7831   -1.2090    8.4892 H         1 <0>         0.1295
     51 H19        -3.8465   -3.4902    7.8763 H         1 <0>         0.1097
     52 H20        -2.9443   -3.2423    9.4657 H         1 <0>         0.1019
     53 H21        -3.9945   -0.9456    9.7035 H         1 <0>         0.1045
     54 H22        -4.8967   -1.1936    8.1141 H         1 <0>         0.0956
     55 H23        -3.8440    0.1840   -0.0151 H         1 <0>         0.3761
     56 H24         1.6194    1.6607    3.5531 H         1 <0>         0.0692
     57 H25         2.7335    0.8501    2.4246 H         1 <0>         0.0708
     58 H26         2.6042    3.8526    2.9559 H         1 <0>         0.0845
     59 H27         3.8503    2.7432    3.5712 H         1 <0>         0.0755
     60 H28         3.5375    4.1330   -1.7476 H         1 <0>         0.1322
     61 H29         5.4578    2.6726   -2.0251 H         1 <0>         0.1446
     62 H30         4.3632    0.2451    2.4030 H         1 <0>         0.0578
     63 H31         6.0881    0.5553    2.0919 H         1 <0>         0.0750
     64 H32         5.1887    1.5892    3.2278 H         1 <0>         0.0735
     65 H33         1.6325    4.5509    1.4437 H         1 <0>         0.0701
     66 H34         2.9179    5.4656    0.6194 H         1 <0>         0.0624
     67 H35         1.5496    4.8147   -0.3147 H         1 <0>         0.0693
@<TRIPOS>BOND
     1    1    2 1
     2    1   38 1
     3    1   39 1
     4    1   40 1
     5    2    9 1
     6    2   23 1
     7    2    3 1
     8    3    4 1
     9    3   41 1
    10    3   42 1
    11    4    5 1
    12    4   43 1
    13    4   44 1
    14    5    6 1
    15    5   30 1
    16    5    7 1
    17    7    8 1
    18    7    9 1
    19    7   26 1
    20    9   10 1
    21    9   11 1
    22   11   12 1
    23   11   45 1
    24   11   46 1
    25   12   13 2
    26   12   23 1
    27   13   14 1
    28   13   47 1
    29   14   19 ar
    30   14   15 ar
    31   15   16 ar
    32   15   48 1
    33   16   17 ar
    34   17   18 ar
    35   17   20 1
    36   18   19 ar
    37   19   49 1
    38   20   22 1
    39   20   21 1
    40   20   50 1
    41   21   22 1
    42   21   51 1
    43   21   52 1
    44   22   53 1
    45   22   54 1
    46   23   24 1
    47   23   25 1
    48   25   55 1
    49   26   27 1
    50   26   56 1
    51   26   57 1
    52   27   28 1
    53   27   58 1
    54   27   59 1
    55   28   29 1
    56   28   35 1
    57   28   30 1
    58   30   31 1
    59   30   37 1
    60   31   32 2
    61   31   60 1
    62   32   33 1
    63   32   61 1
    64   33   34 2
    65   33   35 am
    66   35   36 1
    67   36   62 1
    68   36   63 1
    69   36   64 1
    70   37   65 1
    71   37   66 1
    72   37   67 1
@<TRIPOS>MOLECULE
CHEMBL403061
   47    51     0     0     0
SMALL
USER_CHARGES

@<TRIPOS>ATOM
      1 C1         -0.0066    1.4895    0.1241 C.3       1 <0>        -0.1283
      2 C2          0.0122   -0.0390    0.0593 C.3       1 <0>         0.1066
      3 C3         -1.3840   -0.7267    0.1335 C.3       1 <0>        -0.1392
      4 C4         -1.0363   -2.1577    0.6169 C.3       1 <0>        -0.1394
      5 C5          0.5147   -2.1066    0.7572 C.3       1 <0>         0.1058
      6 O1          0.7211   -0.7108    1.1512 O.3       1 <0>        -0.3590
      7 C6          1.0612   -2.0976   -0.7010 C.3       1 <0>        -0.1439
      8 H1          0.6426   -2.8856   -1.3270 H         1 <0>         0.1502
      9 C7          0.7243   -0.6445   -1.1864 C.3       1 <0>        -0.1455
     10 H2          0.1142   -0.6220   -2.0894 H         1 <0>         0.1484
     11 C8          2.0749    0.0175   -1.3352 C.2       1 <0>         0.5440
     12 O2          2.2579    1.1613   -1.6928 O.2       1 <0>        -0.4648
     13 N1          3.0372   -0.8532   -1.0108 N.am      1 <0>        -0.5419
     14 C9          2.5717   -2.1105   -0.6466 C.2       1 <0>         0.5448
     15 O3          3.2520   -3.0589   -0.3187 O.2       1 <0>        -0.4439
     16 C10         4.3993   -0.5269   -1.0518 C.ar      1 <0>         0.1695
     17 C11         5.1324   -0.4640    0.1276 C.ar      1 <0>        -0.1350
     18 C12         6.4727   -0.1440    0.0943 C.ar      1 <0>        -0.0386
     19 C13         7.0970    0.1178   -1.1262 C.ar      1 <0>        -0.0459
     20 C14         6.3574    0.0541   -2.3139 C.ar      1 <0>         0.1670
     21 C15         5.0136   -0.2731   -2.2707 C.ar      1 <0>        -0.1923
     22 O4          6.9588    0.3077   -3.5053 O.3       1 <0>        -0.3012
     23 C16         6.1422    0.2242   -4.6750 C.3       1 <0>         0.0228
     24 C17         8.5335    0.4615   -1.1651 C.2       1 <0>         0.0068
     25 C18         9.1625    1.3982   -0.4091 C.2       1 <0>        -0.0205
     26 N2         10.4589    1.3923   -0.7551 N.2       1 <0>        -0.4864
     27 C19        10.6441    0.4971   -1.6840 C.2       1 <0>         0.1735
     28 O5          9.4746   -0.0998   -1.9555 O.3       1 <0>        -0.1894
     29 C20         1.1225   -3.1547    1.6916 C.3       1 <0>        -0.1284
     30 H3          1.0164    1.8659    0.1212 H         1 <0>         0.0742
     31 H4         -0.5410    1.8833   -0.7404 H         1 <0>         0.0848
     32 H5         -0.5084    1.8083    1.0377 H         1 <0>         0.0762
     33 H6         -2.0258   -0.2207    0.8547 H         1 <0>         0.0873
     34 H7         -1.8534   -0.7547   -0.8498 H         1 <0>         0.0852
     35 H8         -1.5045   -2.3647    1.5792 H         1 <0>         0.0873
     36 H9         -1.3327   -2.8988   -0.1254 H         1 <0>         0.0853
     37 H10         4.6503   -0.6660    1.0726 H         1 <0>         0.1379
     38 H11         7.0395   -0.0956    1.0124 H         1 <0>         0.1482
     39 H12         4.4415   -0.3274   -3.1851 H         1 <0>         0.1385
     40 H13         6.7444    0.4489   -5.5554 H         1 <0>         0.1071
     41 H14         5.7335   -0.7826   -4.7617 H         1 <0>         0.0582
     42 H15         5.3258    0.9425   -4.6003 H         1 <0>         0.0603
     43 H16         8.7030    2.0324    0.3345 H         1 <0>         0.1864
     44 H17        11.5885    0.2693   -2.1558 H         1 <0>         0.2511
     45 H18         0.9023   -4.1521    1.3110 H         1 <0>         0.0855
     46 H19         2.2023   -3.0148    1.7410 H         1 <0>         0.0727
     47 H20         0.6958   -3.0438    2.6885 H         1 <0>         0.0781
@<TRIPOS>BOND
     1    1    2 1
     2    1   30 1
     3    1   31 1
     4    1   32 1
     5    2    6 1
     6    2    9 1
     7    2    3 1
     8    3    4 1
     9    3   33 1
    10    3   34 1
    11    4    5 1
    12    4   35 1
    13    4   36 1
    14    5    6 1
    15    5    7 1
    16    5   29 1
    17    7    8 1
    18    7   14 1
    19    7    9 1
    20    9   10 1
    21    9   11 1
    22   11   12 2
    23   11   13 am
    24   13   14 am
    25   13   16 1
    26   14   15 2
    27   16   21 ar
    28   16   17 ar
    29   17   18 ar
    30   17   37 1
    31   18   19 ar
    32   18   38 1
    33   19   20 ar
    34   19   24 1
    35   20   21 ar
    36   20   22 1
    37   21   39 1
    38   22   23 1
    39   23   40 1
    40   23   41 1
    41   23   42 1
    42   24   28 1
    43   24   25 2
    44   25   26 1
    45   25   43 1
    46   26   27 2
    47   27   28 1
    48   27   44 1
    49   29   45 1
    50   29   46 1
    51   29   47 1
@<TRIPOS>MOLECULE
CHEMBL403061__1
   47    51     0     0     0
SMALL
USER_CHARGES

@<TRIPOS>ATOM
      1 C1         -0.6135    1.7127    0.0921 C.3       1 <0>        -0.1254
      2 C2         -0.3106    0.2165   -0.0105 C.3       1 <0>         0.1127
      3 C3          0.4541   -0.2225   -1.2950 C.3       1 <0>        -0.1583
      4 C4          1.0964   -1.5673   -0.8689 C.3       1 <0>        -0.1589
      5 C5          0.6176   -1.7262    0.6053 C.3       1 <0>         0.1132
      6 O1          0.5547   -0.3282    1.0386 O.3       1 <0>        -0.3450
      7 C6         -0.8947   -2.0862    0.5122 C.3       1 <0>        -0.1516
      8 H1         -1.3023   -2.4933    1.4375 H         1 <0>         0.1469
      9 C7         -1.5485   -0.7227    0.0950 C.3       1 <0>        -0.1423
     10 H2         -2.3143   -0.3572    0.7792 H         1 <0>         0.1505
     11 C8         -2.0519   -1.0106   -1.3008 C.2       1 <0>         0.5443
     12 O2         -2.6218   -0.2155   -2.0168 O.2       1 <0>        -0.4583
     13 N1         -1.7710   -2.2777   -1.6244 N.am      1 <0>        -0.5394
     14 C9         -1.0999   -2.9872   -0.6839 C.2       1 <0>         0.5472
     15 O3         -0.7435   -4.1436   -0.7582 O.2       1 <0>        -0.4506
     16 C10        -2.1170   -2.8383   -2.8611 C.ar      1 <0>         0.1605
     17 C11        -1.4974   -2.3908   -4.0223 C.ar      1 <0>        -0.1365
     18 C12        -1.8328   -2.9382   -5.2420 C.ar      1 <0>        -0.0378
     19 C13        -2.7970   -3.9447   -5.3131 C.ar      1 <0>        -0.0429
     20 C14        -3.4207   -4.3948   -4.1425 C.ar      1 <0>         0.1682
     21 C15        -3.0734   -3.8427   -2.9222 C.ar      1 <0>        -0.1900
     22 O4         -4.3600   -5.3743   -4.2045 O.3       1 <0>        -0.3005
     23 C16        -4.9536   -5.7829   -2.9706 C.3       1 <0>         0.0223
     24 C17        -3.1591   -4.5332   -6.6191 C.2       1 <0>         0.0044
     25 C18        -3.4880   -3.8555   -7.7492 C.2       1 <0>        -0.0190
     26 N2         -3.7462   -4.7627   -8.7034 N.2       1 <0>        -0.4865
     27 C19        -3.5894   -5.9565   -8.2047 C.2       1 <0>         0.1750
     28 O5         -3.2209   -5.8489   -6.9201 O.3       1 <0>        -0.1889
     29 C20         1.4717   -2.6508    1.4751 C.3       1 <0>        -0.1246
     30 H3          0.3167    2.2771    0.0255 H         1 <0>         0.0774
     31 H4         -1.2756    2.0061   -0.7225 H         1 <0>         0.0857
     32 H5         -1.0972    1.9209    1.0465 H         1 <0>         0.0762
     33 H6         -0.2373   -0.3705   -2.1246 H         1 <0>         0.0764
     34 H7          1.2214    0.5064   -1.5558 H         1 <0>         0.0953
     35 H8          0.7247   -2.3854   -1.4859 H         1 <0>         0.0761
     36 H9          2.1837   -1.5086   -0.9175 H         1 <0>         0.0948
     37 H10        -0.7514   -1.6117   -3.9685 H         1 <0>         0.1363
     38 H11        -1.3498   -2.5881   -6.1423 H         1 <0>         0.1489
     39 H12        -3.5492   -4.1907   -2.0172 H         1 <0>         0.1397
     40 H13        -5.6846   -6.5686   -3.1616 H         1 <0>         0.1079
     41 H14        -4.1797   -6.1613   -2.3028 H         1 <0>         0.0606
     42 H15        -5.4495   -4.9306   -2.5061 H         1 <0>         0.0588
     43 H16        -3.5336   -2.7821   -7.8595 H         1 <0>         0.1867
     44 H17        -3.7291   -6.8834   -8.7412 H         1 <0>         0.2514
     45 H18         2.4975   -2.2831    1.4978 H         1 <0>         0.0781
     46 H19         1.0701   -2.6698    2.4883 H         1 <0>         0.0761
     47 H20         1.4559   -3.6581    1.0590 H         1 <0>         0.0850
@<TRIPOS>BOND
     1    1    2 1
     2    1   30 1
     3    1   31 1
     4    1   32 1
     5    2    6 1
     6    2    9 1
     7    2    3 1
     8    3    4 1
     9    3   33 1
    10    3   34 1
    11    4    5 1
    12    4   35 1
    13    4   36 1
    14    5    6 1
    15    5    7 1
    16    5   29 1
    17    7    8 1
    18    7   14 1
    19    7    9 1
    20    9   10 1
    21    9   11 1
    22   11   12 2
    23   11   13 am
    24   13   14 am
    25   13   16 1
    26   14   15 2
    27   16   21 ar
    28   16   17 ar
    29   17   18 ar
    30   17   37 1
    31   18   19 ar
    32   18   38 1
    33   19   20 ar
    34   19   24 1
    35   20   21 ar
    36   20   22 1
    37   21   39 1
    38   22   23 1
    39   23   40 1
    40   23   41 1
    41   23   42 1
    42   24   28 1
    43   24   25 2
    44   25   26 1
    45   25   43 1
    46   26   27 2
    47   27   28 1
    48   27   44 1
    49   29   45 1
    50   29   46 1
    51   29   47 1
@<TRIPOS>MOLECULE
CHEMBL271262
   41    45     0     0     0
SMALL
USER_CHARGES

@<TRIPOS>ATOM
      1 C1         -0.0187    1.5258    0.0104 C.3       1 <0>        -0.1282
      2 C2          0.0021   -0.0041    0.0020 C.3       1 <0>         0.1068
      3 C3         -1.3940   -0.6903    0.0892 C.3       1 <0>        -0.1388
      4 C4         -1.0492   -2.1022    0.6279 C.3       1 <0>        -0.1390
      5 C5          0.5004   -2.0440    0.7799 C.3       1 <0>         0.1063
      6 O1          0.7019   -0.6344    1.1240 O.3       1 <0>        -0.3548
      7 C6          1.0598   -2.0879   -0.6729 C.3       1 <0>        -0.1456
      8 H1          0.6474   -2.8989   -1.2731 H         1 <0>         0.1482
      9 C7          0.7257   -0.6540   -1.2142 C.3       1 <0>        -0.1469
     10 H2          0.1237   -0.6655   -2.1228 H         1 <0>         0.1464
     11 C8          2.0770    0.0038   -1.3755 C.2       1 <0>         0.5394
     12 O2          2.2620    1.1340   -1.7732 O.2       1 <0>        -0.4630
     13 N1          3.0372   -0.8532   -1.0108 N.am      1 <0>        -0.5294
     14 C9          2.5697   -2.0969   -0.6047 C.2       1 <0>         0.5396
     15 O3          3.2480   -3.0318   -0.2363 O.2       1 <0>        -0.4441
     16 C10         4.4024   -0.5261   -1.0519 C.ar      1 <0>         0.0718
     17 C11         5.1495   -0.7658   -2.2038 C.ar      1 <0>         0.2639
     18 C12         6.5015   -0.4333   -2.2211 C.ar      1 <0>        -0.1727
     19 C13         7.1146    0.1248   -1.1288 C.ar      1 <0>         0.0070
     20 C14         6.3867    0.3802    0.0528 C.ar      1 <0>         0.0272
     21 C15         5.0157    0.0400    0.0439 C.ar      1 <0>        -0.1042
     22 S1          4.5050    0.5255    1.6719 S.3       1 <0>         0.1053
     23 C16         5.9868    1.1042    2.2211 C.2       1 <0>         0.0545
     24 N2          6.7977    0.9167    1.2215 N.2       1 <0>        -0.4927
     25 N3          4.5467   -1.3355   -3.3321 N.pl3     1 <0>        -0.8574
     26 C17         1.1009   -3.0563    1.7575 C.3       1 <0>        -0.1283
     27 H3          1.0039    1.9031    0.0027 H         1 <0>         0.0743
     28 H4         -0.5459    1.8868   -0.8726 H         1 <0>         0.0837
     29 H5         -0.5289    1.8773    0.9072 H         1 <0>         0.0760
     30 H6         -2.0427   -0.1590    0.7857 H         1 <0>         0.0869
     31 H7         -1.8548   -0.7550   -0.8965 H         1 <0>         0.0843
     32 H8         -1.5257   -2.2743    1.5930 H         1 <0>         0.0868
     33 H9         -1.3384   -2.8704   -0.0892 H         1 <0>         0.0843
     34 H10         7.0799   -0.6192   -3.1140 H         1 <0>         0.1447
     35 H11         8.1653    0.3709   -1.1732 H         1 <0>         0.1434
     36 H12         6.2151    1.5266    3.1885 H         1 <0>         0.2229
     37 H13         3.6045   -1.5655   -3.3145 H         1 <0>         0.3973
     38 H14         5.0713   -1.5002   -4.1312 H         1 <0>         0.4091
     39 H15         0.8850   -4.0672    1.4119 H         1 <0>         0.0842
     40 H16         2.1801   -2.9133    1.8112 H         1 <0>         0.0729
     41 H17         0.6653   -2.9094    2.7458 H         1 <0>         0.0779
@<TRIPOS>BOND
     1    1    2 1
     2    1   27 1
     3    1   28 1
     4    1   29 1
     5    2    6 1
     6    2    9 1
     7    2    3 1
     8    3    4 1
     9    3   30 1
    10    3   31 1
    11    4    5 1
    12    4   32 1
    13    4   33 1
    14    5    6 1
    15    5    7 1
    16    5   26 1
    17    7    8 1
    18    7   14 1
    19    7    9 1
    20    9   10 1
    21    9   11 1
    22   11   12 2
    23   11   13 am
    24   13   14 am
    25   13   16 1
    26   14   15 2
    27   16   21 ar
    28   16   17 ar
    29   17   18 ar
    30   17   25 1
    31   18   19 ar
    32   18   34 1
    33   19   20 ar
    34   19   35 1
    35   20   24 1
    36   20   21 ar
    37   21   22 1
    38   22   23 1
    39   23   24 2
    40   23   36 1
    41   25   37 1
    42   25   38 1
    43   26   39 1
    44   26   40 1
    45   26   41 1
@<TRIPOS>MOLECULE
CHEMBL271262__1
   41    45     0     0     0
SMALL
USER_CHARGES

@<TRIPOS>ATOM
      1 C1         -0.0187    1.5258    0.0104 C.3       1 <0>        -0.1249
      2 C2          0.0021   -0.0041    0.0020 C.3       1 <0>         0.1124
      3 C3          0.7699   -0.6540   -1.1878 C.3       1 <0>        -0.1578
      4 C4          1.1093   -2.0662   -0.6464 C.3       1 <0>        -0.1583
      5 C5          0.4927   -2.0442    0.7844 C.3       1 <0>         0.1131
      6 O1          0.6617   -0.6351    1.1478 O.3       1 <0>        -0.3447
      7 C6         -1.0481   -2.1229    0.5717 C.3       1 <0>        -0.1529
      8 H1         -1.5982   -2.3908    1.4738 H         1 <0>         0.1457
      9 C7         -1.3958   -0.6897    0.0373 C.3       1 <0>        -0.1440
     10 H2         -2.1306   -0.1480    0.6330 H         1 <0>         0.1491
     11 C8         -1.8315   -0.9632   -1.3839 C.2       1 <0>         0.5387
     12 O2         -2.1811   -0.1211   -2.1830 O.2       1 <0>        -0.4580
     13 N1         -1.7710   -2.2777   -1.6244 N.am      1 <0>        -0.5277
     14 C9         -1.3241   -3.0410   -0.5968 C.2       1 <0>         0.5425
     15 O3         -1.1887   -4.2458   -0.5874 O.2       1 <0>        -0.4486
     16 C10        -2.1178   -2.8396   -2.8639 C.ar      1 <0>         0.0617
     17 C11        -3.4301   -3.2365   -3.1147 C.ar      1 <0>         0.2695
     18 C12        -3.7503   -3.7911   -4.3511 C.ar      1 <0>        -0.1719
     19 C13        -2.8021   -3.9559   -5.3279 C.ar      1 <0>         0.0096
     20 C14        -1.4647   -3.5644   -5.1061 C.ar      1 <0>         0.0281
     21 C15        -1.1657   -2.9989   -3.8466 C.ar      1 <0>        -0.1034
     22 S1          0.5674   -2.6531   -3.9999 S.3       1 <0>         0.0857
     23 C16         0.7814   -3.2132   -5.5725 C.2       1 <0>         0.0589
     24 N2         -0.3952   -3.6398   -5.9267 N.2       1 <0>        -0.4888
     25 N3         -4.4163   -3.0796   -2.1330 N.pl3     1 <0>        -0.8557
     26 C17         1.0836   -3.0566    1.7677 C.3       1 <0>        -0.1242
     27 H3          1.0039    1.9031    0.0027 H         1 <0>         0.0776
     28 H4         -0.5459    1.8868   -0.8726 H         1 <0>         0.0848
     29 H5         -0.5289    1.8773    0.9072 H         1 <0>         0.0756
     30 H6          0.1316   -0.7213   -2.0688 H         1 <0>         0.0783
     31 H7          1.6799   -0.0969   -1.4106 H         1 <0>         0.0954
     32 H8          0.6398   -2.8371   -1.2574 H         1 <0>         0.0770
     33 H9          2.1883   -2.2128   -0.5996 H         1 <0>         0.0954
     34 H10        -4.7674   -4.0985   -4.5447 H         1 <0>         0.1462
     35 H11        -3.0818   -4.3899   -6.2765 H         1 <0>         0.1447
     36 H12         1.6921   -3.2248   -6.1528 H         1 <0>         0.2238
     37 H13        -4.1877   -2.6929   -1.2733 H         1 <0>         0.3985
     38 H14        -5.3281   -3.3575   -2.3128 H         1 <0>         0.4101
     39 H15         2.1554   -2.8845    1.8661 H         1 <0>         0.0782
     40 H16         0.6060   -2.9396    2.7405 H         1 <0>         0.0756
     41 H17         0.9103   -4.0668    1.3969 H         1 <0>         0.0846
@<TRIPOS>BOND
     1    1    2 1
     2    1   27 1
     3    1   28 1
     4    1   29 1
     5    2    6 1
     6    2    9 1
     7    2    3 1
     8    3    4 1
     9    3   30 1
    10    3   31 1
    11    4    5 1
    12    4   32 1
    13    4   33 1
    14    5    6 1
    15    5    7 1
    16    5   26 1
    17    7    8 1
    18    7   14 1
    19    7    9 1
    20    9   10 1
    21    9   11 1
    22   11   12 2
    23   11   13 am
    24   13   14 am
    25   13   16 1
    26   14   15 2
    27   16   21 ar
    28   16   17 ar
    29   17   18 ar
    30   17   25 1
    31   18   19 ar
    32   18   34 1
    33   19   20 ar
    34   19   35 1
    35   20   24 1
    36   20   21 ar
    37   21   22 1
    38   22   23 1
    39   23   24 2
    40   23   36 1
    41   25   37 1
    42   25   38 1
    43   26   39 1
    44   26   40 1
    45   26   41 1
@<TRIPOS>MOLECULE
CHEMBL184833
   41    43     0     0     0
SMALL
USER_CHARGES

@<TRIPOS>ATOM
      1 C1         -0.1451    1.6925   -0.2497 C.3       1 <0>        -0.1465
      2 C2          0.1261    0.1923   -0.3790 C.3       1 <0>         0.1046
      3 C3          1.1530   -0.0726   -1.4621 C.2       1 <0>         0.5224
      4 O1          1.0575    0.1900   -2.6418 O.2       1 <0>        -0.4276
      5 N1          2.1946   -0.6602   -0.8407 N.am      1 <0>        -0.4981
      6 C4          1.9709   -0.8018    0.4708 C.2       1 <0>         0.5285
      7 S1          3.0893   -1.5106    1.5559 S.2       1 <0>        -0.5264
      8 N2          0.7686   -0.3253    0.8414 N.pl3     1 <0>        -0.5402
      9 C5          0.2079   -0.3214    2.1948 C.3       1 <0>         0.1768
     10 C6         -0.4522   -1.6481    2.4689 C.ar      1 <0>        -0.1275
     11 C7         -1.8133   -1.7954    2.2778 C.ar      1 <0>        -0.1024
     12 C8         -2.4189   -3.0123    2.5292 C.ar      1 <0>        -0.1274
     13 C9         -1.6632   -4.0821    2.9713 C.ar      1 <0>        -0.1052
     14 C10        -0.3019   -3.9351    3.1615 C.ar      1 <0>        -0.1230
     15 C11         0.3043   -2.7193    2.9060 C.ar      1 <0>        -0.0877
     16 C12         3.3644   -1.0717   -1.4869 C.ar      1 <0>         0.1486
     17 C13         4.2163   -0.1260   -2.0478 C.ar      1 <0>        -0.0751
     18 C14         5.3689   -0.5268   -2.6854 C.ar      1 <0>        -0.0550
     19 C15         5.6831   -1.8864   -2.7685 C.ar      1 <0>         0.0278
     20 C16         4.8247   -2.8341   -2.2032 C.ar      1 <0>        -0.0589
     21 C17         3.6755   -2.4243   -1.5621 C.ar      1 <0>        -0.0430
     22 I1          5.2882   -4.8736   -2.3242 I         1 <0>         0.0004
     23 C18         6.8807   -2.3073   -3.4312 C.1       1 <0>         0.2339
     24 N3          7.8307   -2.6412   -3.9570 N.1       1 <0>        -0.3698
     25 C19        -1.1719   -0.5649   -0.6665 C.3       1 <0>        -0.1475
     26 H1          0.7962    2.2199   -0.0954 H         1 <0>         0.0722
     27 H2         -0.6199    2.0558   -1.1612 H         1 <0>         0.0937
     28 H3         -0.8048    1.8706    0.5994 H         1 <0>         0.0874
     29 H4          1.0063   -0.1564    2.9184 H         1 <0>         0.1182
     30 H5         -0.5301    0.4762    2.2801 H         1 <0>         0.1067
     31 H6         -2.4037   -0.9596    1.9325 H         1 <0>         0.1211
     32 H7         -3.4824   -3.1272    2.3806 H         1 <0>         0.1233
     33 H8         -2.1364   -5.0327    3.1684 H         1 <0>         0.1227
     34 H9          0.2884   -4.7708    3.5072 H         1 <0>         0.1248
     35 H10         1.3685   -2.6054    3.0511 H         1 <0>         0.1479
     36 H11         3.9731    0.9243   -1.9833 H         1 <0>         0.1457
     37 H12         6.0293    0.2083   -3.1211 H         1 <0>         0.1560
     38 H13         3.0139   -3.1553   -1.1213 H         1 <0>         0.1475
     39 H14        -1.6484   -0.1458   -1.5527 H         1 <0>         0.0915
     40 H15        -0.9480   -1.6178   -0.8380 H         1 <0>         0.0705
     41 H16        -1.8441   -0.4706    0.1864 H         1 <0>         0.0890
@<TRIPOS>BOND
     1    1    2 1
     2    1   26 1
     3    1   27 1
     4    1   28 1
     5    2    8 1
     6    2    3 1
     7    2   25 1
     8    3    4 2
     9    3    5 am
    10    5    6 1
    11    5   16 1
    12    6    7 2
    13    6    8 1
    14    8    9 1
    15    9   10 1
    16    9   29 1
    17    9   30 1
    18   10   15 ar
    19   10   11 ar
    20   11   12 ar
    21   11   31 1
    22   12   13 ar
    23   12   32 1
    24   13   14 ar
    25   13   33 1
    26   14   15 ar
    27   14   34 1
    28   15   35 1
    29   16   21 ar
    30   16   17 ar
    31   17   18 ar
    32   17   36 1
    33   18   19 ar
    34   18   37 1
    35   19   20 ar
    36   19   23 1
    37   20   21 ar
    38   20   22 1
    39   21   38 1
    40   23   24 3
    41   25   39 1
    42   25   40 1
    43   25   41 1
@<TRIPOS>MOLECULE
CHEMBL281945
   42    44     0     0     0
SMALL
USER_CHARGES

@<TRIPOS>ATOM
      1 C1          0.3899    1.2392   -0.1258 C.3       1 <0>        -0.1506
      2 C2          0.2497   -0.2778    0.0155 C.3       1 <0>        -0.1107
      3 H1         -0.8029   -0.5544   -0.0443 H         1 <0>         0.0839
      4 C3          1.0285   -0.9729   -1.1087 C.3       1 <0>         0.1216
      5 N1          0.8052   -2.4191   -0.9823 N.pl3     1 <0>        -0.7355
      6 C4          0.8891   -3.0086    0.2797 C.ar      1 <0>         0.2871
      7 C5          0.9670   -4.3924    0.3660 C.ar      1 <0>        -0.2474
      8 C6          1.0483   -5.0049    1.6073 C.ar      1 <0>         0.2453
      9 C7          1.0498   -4.2112    2.7717 C.ar      1 <0>        -0.1675
     10 C8          0.9713   -2.8178    2.6635 C.ar      1 <0>        -0.0173
     11 C9          0.8944   -2.2255    1.4332 C.ar      1 <0>        -0.1631
     12 C10         0.8200   -0.7215    1.3623 C.3       1 <0>        -0.0296
     13 C11        -0.0779   -0.2030    2.4873 C.3       1 <0>        -0.1222
     14 C12        -1.4813   -0.7923    2.3324 C.3       1 <0>        -0.1698
     15 C13        -2.3435   -0.3770    3.5261 C.3       1 <0>         0.4492
     16 F1         -2.4269    1.0185    3.5781 F         1 <0>        -0.1845
     17 F2         -3.6267   -0.9159    3.3845 F         1 <0>        -0.1852
     18 F3         -1.7652   -0.8539    4.7074 F         1 <0>        -0.1797
     19 C14         1.1322   -4.8400    4.0408 C.2       1 <0>        -0.0595
     20 C15         1.2087   -6.1923    4.1054 C.2       1 <0>        -0.1685
     21 C16         1.2063   -6.9633    2.9248 C.2       1 <0>         0.5414
     22 N2          1.1272   -6.3784    1.7149 N.am      1 <0>        -0.6246
     23 O1          1.2768   -8.1780    3.0009 O.2       1 <0>        -0.5216
     24 C17         1.1353   -4.0149    5.3018 C.3       1 <0>         0.5033
     25 F4          1.2235   -4.8610    6.4125 F         1 <0>        -0.1683
     26 F5          2.2324   -3.1469    5.2886 F         1 <0>        -0.1680
     27 F6         -0.0472   -3.2708    5.3752 F         1 <0>        -0.1640
     28 H2          1.4430    1.5139   -0.0657 H         1 <0>         0.0616
     29 H3         -0.0132    1.5532   -1.0886 H         1 <0>         0.0616
     30 H4         -0.1602    1.7312    0.6763 H         1 <0>         0.0654
     31 H5          0.6668   -0.6269   -2.0769 H         1 <0>         0.0879
     32 H6          2.0918   -0.7538   -1.0113 H         1 <0>         0.0685
     33 H7          0.6022   -2.9562   -1.7641 H         1 <0>         0.4084
     34 H8          0.9637   -4.9910   -0.5329 H         1 <0>         0.1381
     35 H9          0.9709   -2.2082    3.5551 H         1 <0>         0.1377
     36 H10         1.8207   -0.3068    1.4840 H         1 <0>         0.0944
     37 H11         0.3371   -0.5011    3.4501 H         1 <0>         0.0822
     38 H12        -0.1329    0.8845    2.4363 H         1 <0>         0.0890
     39 H13        -1.9319   -0.4207    1.4120 H         1 <0>         0.1106
     40 H14        -1.4164   -1.8796    2.2919 H         1 <0>         0.1109
     41 H15         1.2721   -6.6814    5.0662 H         1 <0>         0.1685
     42 H16         1.1262   -6.9256    0.9140 H         1 <0>         0.4207
@<TRIPOS>BOND
     1    1    2 1
     2    1   28 1
     3    1   29 1
     4    1   30 1
     5    2    3 1
     6    2   12 1
     7    2    4 1
     8    4    5 1
     9    4   31 1
    10    4   32 1
    11    5    6 1
    12    5   33 1
    13    6   11 ar
    14    6    7 ar
    15    7    8 ar
    16    7   34 1
    17    8   22 1
    18    8    9 ar
    19    9   10 ar
    20    9   19 1
    21   10   11 ar
    22   10   35 1
    23   11   12 1
    24   12   13 1
    25   12   36 1
    26   13   14 1
    27   13   37 1
    28   13   38 1
    29   14   15 1
    30   14   39 1
    31   14   40 1
    32   15   16 1
    33   15   17 1
    34   15   18 1
    35   19   20 2
    36   19   24 1
    37   20   21 1
    38   20   41 1
    39   21   22 am
    40   21   23 2
    41   22   42 1
    42   24   25 1
    43   24   26 1
    44   24   27 1
@<TRIPOS>MOLECULE
CHEMBL281945__1
   42    44     0     0     0
SMALL
USER_CHARGES

@<TRIPOS>ATOM
      1 C1          0.2199    1.1566   -0.1673 C.3       1 <0>        -0.1509
      2 C2          0.1737   -0.3580    0.0437 C.3       1 <0>        -0.1104
      3 H1         -0.8619   -0.6978    0.0265 H         1 <0>         0.0908
      4 C3          0.9624   -1.0567   -1.0714 C.3       1 <0>         0.1219
      5 N1          2.3269   -0.5133   -1.0648 N.pl3     1 <0>        -0.7326
      6 C4          2.9886   -0.3617    0.1543 C.ar      1 <0>         0.2896
      7 C5          4.3574   -0.1281    0.1462 C.ar      1 <0>        -0.2487
      8 C6          5.0398    0.0293    1.3429 C.ar      1 <0>         0.2453
      9 C7          4.3315   -0.0490    2.5587 C.ar      1 <0>        -0.1681
     10 C8          2.9520   -0.2862    2.5457 C.ar      1 <0>        -0.0161
     11 C9          2.2908   -0.4423    1.3588 C.ar      1 <0>        -0.1569
     12 C10         0.8047   -0.7068    1.3913 C.3       1 <0>        -0.0290
     13 C11         0.1593    0.1438    2.4871 C.3       1 <0>        -0.1272
     14 C12        -1.3244   -0.2116    2.6012 C.3       1 <0>        -0.1678
     15 C13        -1.9407    0.5441    3.7803 C.3       1 <0>         0.4501
     16 F1         -1.8055    1.9211    3.5735 F         1 <0>        -0.1832
     17 F2         -3.2974    0.2191    3.8846 F         1 <0>        -0.1849
     18 F3         -1.2825    0.1829    4.9608 F         1 <0>        -0.1824
     19 C14         5.0314    0.1132    3.7820 C.2       1 <0>        -0.0589
     20 C15         6.3682    0.3395    3.7544 C.2       1 <0>        -0.1698
     21 C16         7.0533    0.4124    2.5242 C.2       1 <0>         0.5413
     22 N2          6.4000    0.2614    1.3568 N.am      1 <0>        -0.6245
     23 O1          8.2552    0.6161    2.5175 O.2       1 <0>        -0.5225
     24 C17         4.2981    0.0355    5.0963 C.3       1 <0>         0.5046
     25 F4          5.2022    0.2262    6.1467 F         1 <0>        -0.1680
     26 F5          3.3147    1.0296    5.1411 F         1 <0>        -0.1671
     27 F6          3.6967   -1.2214    5.2211 F         1 <0>        -0.1675
     28 H2          1.2560    1.4945   -0.1498 H         1 <0>         0.0609
     29 H3         -0.2265    1.4030   -1.1307 H         1 <0>         0.0565
     30 H4         -0.3371    1.6515    0.6283 H         1 <0>         0.0627
     31 H5          0.9917   -2.1303   -0.8858 H         1 <0>         0.0681
     32 H6          0.4917   -0.8607   -2.0349 H         1 <0>         0.0879
     33 H7          2.7617   -0.2640   -1.8954 H         1 <0>         0.4083
     34 H8          4.8901   -0.0694   -0.7915 H         1 <0>         0.1378
     35 H9          2.4077   -0.3457    3.4766 H         1 <0>         0.1368
     36 H10         0.6312   -1.7607    1.6084 H         1 <0>         0.0894
     37 H11         0.6542   -0.0526    3.4383 H         1 <0>         0.0819
     38 H12         0.2618    1.1994    2.2355 H         1 <0>         0.0893
     39 H13        -1.8372    0.0697    1.6814 H         1 <0>         0.1120
     40 H14        -1.4297   -1.2845    2.7623 H         1 <0>         0.1125
     41 H15         6.9111    0.4642    4.6797 H         1 <0>         0.1683
     42 H16         6.8884    0.3155    0.5205 H         1 <0>         0.4205
@<TRIPOS>BOND
     1    1    2 1
     2    1   28 1
     3    1   29 1
     4    1   30 1
     5    2    3 1
     6    2   12 1
     7    2    4 1
     8    4    5 1
     9    4   31 1
    10    4   32 1
    11    5    6 1
    12    5   33 1
    13    6   11 ar
    14    6    7 ar
    15    7    8 ar
    16    7   34 1
    17    8   22 1
    18    8    9 ar
    19    9   10 ar
    20    9   19 1
    21   10   11 ar
    22   10   35 1
    23   11   12 1
    24   12   13 1
    25   12   36 1
    26   13   14 1
    27   13   37 1
    28   13   38 1
    29   14   15 1
    30   14   39 1
    31   14   40 1
    32   15   16 1
    33   15   17 1
    34   15   18 1
    35   19   20 2
    36   19   24 1
    37   20   21 1
    38   20   41 1
    39   21   22 am
    40   21   23 2
    41   22   42 1
    42   24   25 1
    43   24   26 1
    44   24   27 1
@<TRIPOS>MOLECULE
CHEMBL202990
   50    52     0     0     0
SMALL
USER_CHARGES

@<TRIPOS>ATOM
      1 C1          0.4253    1.7061   -0.1985 C.3       1 <0>        -0.1405
      2 C2          0.3152    0.1801   -0.1905 C.3       1 <0>         0.1434
      3 H1          0.8029   -0.2264   -1.0766 H         1 <0>         0.0787
      4 C3         -1.1628   -0.2294   -0.1829 C.3       1 <0>         0.1277
      5 N1         -1.2491   -1.6716    0.0863 N.pl3     1 <0>        -0.6667
      6 C4         -0.6075   -2.2061    1.2956 C.3       1 <0>         0.1543
      7 H2         -1.0958   -1.7970    2.1801 H         1 <0>         0.0734
      8 C5          0.8705   -1.7966    1.2879 C.3       1 <0>         0.0956
      9 N2          0.9605   -0.3547    1.0167 N.am      1 <0>        -0.6165
     10 C6          1.6193    0.4628    1.8618 C.2       1 <0>         0.7113
     11 O1          1.7792    1.6334    1.5743 O.2       1 <0>        -0.5553
     12 N3          2.1008   -0.0171    3.0255 N.am      1 <0>        -0.6787
     13 C7          2.7043    0.8513    3.9458 C.ar      1 <0>         0.1318
     14 C8          2.5138    2.2216    3.8363 C.ar      1 <0>        -0.0925
     15 C9          3.1088    3.0760    4.7443 C.ar      1 <0>        -0.1358
     16 C10         3.8958    2.5670    5.7637 C.ar      1 <0>         0.1051
     17 C11         4.0887    1.2006    5.8758 C.ar      1 <0>        -0.1659
     18 C12         3.4900    0.3409    4.9729 C.ar      1 <0>         0.0879
     19 F1          3.6729   -0.9929    5.0855 F         1 <0>        -0.1317
     20 F2          4.4768    3.4051    6.6498 F         1 <0>        -0.1315
     21 C13        -0.7213   -3.7318    1.3056 C.3       1 <0>        -0.1677
     22 C14        -1.9261   -2.5162   -0.7887 C.ar      1 <0>         0.2137
     23 C15        -3.1191   -3.1143   -0.3930 C.ar      1 <0>        -0.1055
     24 C16        -3.7911   -3.9500   -1.2557 C.ar      1 <0>        -0.0544
     25 C17        -3.2741   -4.1980   -2.5310 C.ar      1 <0>         0.0119
     26 C18        -2.0757   -3.5957   -2.9252 C.ar      1 <0>        -0.1240
     27 C19        -1.4117   -2.7563   -2.0592 C.ar      1 <0>        -0.0926
     28 C20        -1.5144   -3.8604   -4.2985 C.3       1 <0>         0.5033
     29 F3         -0.3187   -3.1519   -4.4580 F         1 <0>        -0.1705
     30 F4         -1.2683   -5.2297   -4.4457 F         1 <0>        -0.1707
     31 F5         -2.4352   -3.4453   -5.2665 F         1 <0>        -0.1705
     32 C21        -3.9703   -5.0673   -3.4311 C.1       1 <0>         0.2298
     33 N4         -4.5226   -5.7570   -4.1451 N.1       1 <0>        -0.3772
     34 H3          1.4706    1.9944   -0.3091 H         1 <0>         0.0827
     35 H4         -0.1525    2.1077   -1.0309 H         1 <0>         0.0511
     36 H5          0.0361    2.1033    0.7390 H         1 <0>         0.0708
     37 H6         -1.6907    0.3204    0.5964 H         1 <0>         0.0688
     38 H7         -1.6079   -0.0111   -1.1536 H         1 <0>         0.0904
     39 H8          1.3156   -2.0149    2.2587 H         1 <0>         0.0838
     40 H9          1.3984   -2.3464    0.5087 H         1 <0>         0.0823
     41 H10         2.0298   -0.9634    3.2263 H         1 <0>         0.4089
     42 H11         1.9008    2.6199    3.0414 H         1 <0>         0.1846
     43 H12         2.9603    4.1423    4.6588 H         1 <0>         0.1469
     44 H13         4.7031    0.8056    6.6714 H         1 <0>         0.1525
     45 H14        -0.1741   -4.1426    0.4571 H         1 <0>         0.0668
     46 H15        -0.3003   -4.1215    2.2325 H         1 <0>         0.0756
     47 H16        -1.7705   -4.0184    1.2344 H         1 <0>         0.0730
     48 H17        -3.5177   -2.9226    0.5923 H         1 <0>         0.1452
     49 H18        -4.7165   -4.4140   -0.9479 H         1 <0>         0.1483
     50 H19        -0.4881   -2.2872   -2.3647 H         1 <0>         0.1485
@<TRIPOS>BOND
     1    1    2 1
     2    1   34 1
     3    1   35 1
     4    1   36 1
     5    2    3 1
     6    2    9 1
     7    2    4 1
     8    4    5 1
     9    4   37 1
    10    4   38 1
    11    5    6 1
    12    5   22 1
    13    6    7 1
    14    6    8 1
    15    6   21 1
    16    8    9 1
    17    8   39 1
    18    8   40 1
    19    9   10 am
    20   10   11 2
    21   10   12 am
    22   12   13 1
    23   12   41 1
    24   13   18 ar
    25   13   14 ar
    26   14   15 ar
    27   14   42 1
    28   15   16 ar
    29   15   43 1
    30   16   17 ar
    31   16   20 1
    32   17   18 ar
    33   17   44 1
    34   18   19 1
    35   21   45 1
    36   21   46 1
    37   21   47 1
    38   22   27 ar
    39   22   23 ar
    40   23   24 ar
    41   23   48 1
    42   24   25 ar
    43   24   49 1
    44   25   26 ar
    45   25   32 1
    46   26   27 ar
    47   26   28 1
    48   27   50 1
    49   28   29 1
    50   28   30 1
    51   28   31 1
    52   32   33 3
@<TRIPOS>MOLECULE
CHEMBL77062
   56    60     0     0     0
SMALL
USER_CHARGES

@<TRIPOS>ATOM
      1 C1         -0.0187    1.5258    0.0104 C.3       1 <0>        -0.1499
      2 C2          0.0021   -0.0041    0.0020 C.3       1 <0>        -0.0138
      3 C3         -1.4458   -0.4999    0.0549 C.3       1 <0>        -0.1034
      4 C4         -2.0861   -0.0567    1.3719 C.3       1 <0>        -0.1162
      5 C5         -1.3466   -0.6983    2.5471 C.3       1 <0>         0.1087
      6 H1         -1.3485   -1.7820    2.4296 H         1 <0>         0.0547
      7 C6          0.0982   -0.1907    2.5793 C.3       1 <0>        -0.1175
      8 C7          0.7326   -0.4684    1.2267 C.2       1 <0>        -0.1045
      9 C8          1.8711   -1.0962    1.1972 C.2       1 <0>        -0.1546
     10 C9          2.5825   -1.4405   -0.0784 C.3       1 <0>        -0.0843
     11 C10         2.1780   -0.4416   -1.1698 C.3       1 <0>        -0.0645
     12 C11         0.6486   -0.4622   -1.2951 C.3       1 <0>        -0.0665
     13 C12         0.2426    0.4936   -2.4245 C.3       1 <0>        -0.1163
     14 C13         0.7977   -0.0455   -3.7383 C.3       1 <0>        -0.1042
     15 C14         2.3280   -0.0681   -3.7153 C.3       1 <0>        -0.0125
     16 C15         2.8677   -0.7863   -2.4617 C.3       1 <0>        -0.0714
     17 C16         2.6368   -2.2456   -2.9054 C.3       1 <0>        -0.0966
     18 C17         2.9414   -2.1846   -4.3941 C.2       1 <0>        -0.1337
     19 C18         2.7575   -0.9968   -4.8503 C.2       1 <0>        -0.0937
     20 C19         2.9721   -0.5802   -6.2523 C.ar      1 <0>        -0.1352
     21 C20         4.0011    0.3054   -6.5900 C.ar      1 <0>         0.1601
     22 N1          4.1574    0.6509   -7.8561 N.ar      1 <0>        -0.5168
     23 C21         3.3614    0.1739   -8.7926 C.ar      1 <0>         0.2896
     24 N2          2.3798   -0.6625   -8.5184 N.ar      1 <0>        -0.5166
     25 C22         2.1555   -1.0650   -7.2796 C.ar      1 <0>         0.1578
     26 C23         2.9248    1.3338   -3.8547 C.3       1 <0>        -0.1399
     27 O1         -2.0011   -0.3505    3.7689 O.3       1 <0>        -0.5687
     28 H2          1.0039    1.9031    0.0027 H         1 <0>         0.0548
     29 H3         -0.5459    1.8868   -0.8726 H         1 <0>         0.0650
     30 H4         -0.5289    1.8773    0.9072 H         1 <0>         0.0573
     31 H5         -2.0049   -0.0793   -0.7809 H         1 <0>         0.0733
     32 H6         -1.4601   -1.5879   -0.0083 H         1 <0>         0.0644
     33 H7         -2.0283    1.0285    1.4561 H         1 <0>         0.0742
     34 H8         -3.1313   -0.3657    1.3890 H         1 <0>         0.0700
     35 H9          0.1065    0.8814    2.7758 H         1 <0>         0.0798
     36 H10         0.6533   -0.7119    3.3593 H         1 <0>         0.0689
     37 H11         2.3258   -1.3827    2.1340 H         1 <0>         0.1040
     38 H12         3.6597   -1.3894    0.0805 H         1 <0>         0.0703
     39 H13         2.3072   -2.4487   -0.3878 H         1 <0>         0.0762
     40 H14         2.4876    0.5574   -0.8625 H         1 <0>         0.0730
     41 H15         0.3081   -1.4697   -1.5342 H         1 <0>         0.0731
     42 H16        -0.8443    0.5512   -2.4825 H         1 <0>         0.0662
     43 H17         0.6548    1.4841   -2.2319 H         1 <0>         0.0716
     44 H18         0.4266   -1.0582   -3.8956 H         1 <0>         0.0645
     45 H19         0.4609    0.5900   -4.5574 H         1 <0>         0.0608
     46 H20         3.9393   -0.6179   -2.3547 H         1 <0>         0.0787
     47 H21         3.3259   -2.9193   -2.3961 H         1 <0>         0.0738
     48 H22         1.6027   -2.5442   -2.7332 H         1 <0>         0.0836
     49 H23         3.2362   -3.0286   -5.0000 H         1 <0>         0.1228
     50 H24         4.6570    0.7006   -5.8284 H         1 <0>         0.1673
     51 H25         3.5182    0.4782   -9.8169 H         1 <0>         0.1969
     52 H26         1.3523   -1.7539   -7.0634 H         1 <0>         0.1669
     53 H27         2.5915    1.9549   -3.0233 H         1 <0>         0.0627
     54 H28         4.0128    1.2680   -3.8457 H         1 <0>         0.0578
     55 H29         2.5954    1.7771   -4.7944 H         1 <0>         0.0541
     56 H30        -1.5852   -0.7239    4.5580 H         1 <0>         0.3781
@<TRIPOS>BOND
     1    1    2 1
     2    1   28 1
     3    1   29 1
     4    1   30 1
     5    2    8 1
     6    2   12 1
     7    2    3 1
     8    3    4 1
     9    3   31 1
    10    3   32 1
    11    4    5 1
    12    4   33 1
    13    4   34 1
    14    5    6 1
    15    5    7 1
    16    5   27 1
    17    7    8 1
    18    7   35 1
    19    7   36 1
    20    8    9 2
    21    9   10 1
    22    9   37 1
    23   10   11 1
    24   10   38 1
    25   10   39 1
    26   11   16 1
    27   11   12 1
    28   11   40 1
    29   12   13 1
    30   12   41 1
    31   13   14 1
    32   13   42 1
    33   13   43 1
    34   14   15 1
    35   14   44 1
    36   14   45 1
    37   15   19 1
    38   15   16 1
    39   15   26 1
    40   16   17 1
    41   16   46 1
    42   17   18 1
    43   17   47 1
    44   17   48 1
    45   18   19 2
    46   18   49 1
    47   19   20 1
    48   20   25 ar
    49   20   21 ar
    50   21   22 ar
    51   21   50 1
    52   22   23 ar
    53   23   24 ar
    54   23   51 1
    55   24   25 ar
    56   25   52 1
    57   26   53 1
    58   26   54 1
    59   26   55 1
    60   27   56 1
@<TRIPOS>MOLECULE
CHEMBL77062__1
   56    60     0     0     0
SMALL
USER_CHARGES

@<TRIPOS>ATOM
      1 C1          0.5390    1.2638    0.3390 C.3       1 <0>        -0.1484
      2 C2          0.6562   -0.2599    0.2630 C.3       1 <0>        -0.0137
      3 C3         -0.6983   -0.8618    0.6480 C.3       1 <0>        -0.1046
      4 C4         -1.0201   -0.5026    2.0998 C.3       1 <0>        -0.1154
      5 C5          0.0273   -1.1200    3.0280 C.3       1 <0>         0.1085
      6 H1          0.0664   -2.1972    2.8661 H         1 <0>         0.0546
      7 C6          1.3989   -0.5085    2.7279 C.3       1 <0>        -0.1173
      8 C7          1.6963   -0.6993    1.2501 C.2       1 <0>        -0.1049
      9 C8          2.8341   -1.2334    0.9150 C.2       1 <0>        -0.1539
     10 C9          3.2344   -1.4789   -0.5105 C.3       1 <0>        -0.0846
     11 C10         2.5059   -0.4816   -1.4183 C.3       1 <0>        -0.0700
     12 C11         0.9892   -0.6395   -1.1705 C.3       1 <0>        -0.0661
     13 C12         0.1537    0.1987   -2.1328 C.3       1 <0>        -0.1220
     14 C13         0.5236   -0.0681   -3.6020 C.3       1 <0>        -0.0992
     15 C14         2.0039    0.2038   -3.7354 C.3       1 <0>        -0.0271
     16 C15         2.7613   -0.8380   -2.8709 C.3       1 <0>        -0.0815
     17 C16         4.1849   -0.5993   -3.3947 C.3       1 <0>        -0.0892
     18 C17         3.9312   -0.3465   -4.8809 C.2       1 <0>        -0.1342
     19 C18         2.6510    0.0685   -5.0728 C.2       1 <0>        -0.0927
     20 C19         2.0213    0.3873   -6.3715 C.ar      1 <0>        -0.1289
     21 C20         1.6598    1.7001   -6.6926 C.ar      1 <0>         0.1589
     22 N1          1.0996    1.9403   -7.8654 N.ar      1 <0>        -0.5163
     23 C21         0.8811    0.9650   -8.7252 C.ar      1 <0>         0.2891
     24 N2          1.2060   -0.2856   -8.4633 N.ar      1 <0>        -0.5162
     25 C22         1.7753   -0.6144   -7.3167 C.ar      1 <0>         0.1586
     26 C23         2.3162    1.5875   -3.1620 C.3       1 <0>        -0.1554
     27 O1         -0.3254   -0.8551    4.3872 O.3       1 <0>        -0.5686
     28 H2          1.4576    1.7178   -0.0328 H         1 <0>         0.0559
     29 H3         -0.3021    1.5943   -0.2704 H         1 <0>         0.0629
     30 H4          0.3781    1.5647    1.3742 H         1 <0>         0.0576
     31 H5         -1.4731   -0.4615   -0.0059 H         1 <0>         0.0735
     32 H6         -0.6575   -1.9459    0.5422 H         1 <0>         0.0642
     33 H7         -1.0133    0.5812    2.2153 H         1 <0>         0.0736
     34 H8         -2.0063   -0.8880    2.3587 H         1 <0>         0.0699
     35 H9          1.3865    0.5553    2.9655 H         1 <0>         0.0799
     36 H10         2.1623   -1.0092    3.3235 H         1 <0>         0.0691
     37 H11         3.5226   -1.5127    1.6988 H         1 <0>         0.1037
     38 H12         4.3113   -1.3462   -0.6142 H         1 <0>         0.0716
     39 H13         2.9631   -2.4956   -0.7949 H         1 <0>         0.0735
     40 H14         2.8439    0.5341   -1.2127 H         1 <0>         0.0883
     41 H15         0.7171   -1.6846   -1.3183 H         1 <0>         0.0672
     42 H16        -0.9001   -0.0368   -1.9845 H         1 <0>         0.0628
     43 H17         0.3135    1.2543   -1.9134 H         1 <0>         0.0763
     44 H18         0.3109   -1.1062   -3.8572 H         1 <0>         0.0638
     45 H19        -0.0382    0.5999   -4.2549 H         1 <0>         0.0613
     46 H20         2.4028   -1.8414   -3.1005 H         1 <0>         0.0822
     47 H21         4.6334    0.2742   -2.9214 H         1 <0>         0.0848
     48 H22         4.8071   -1.4824   -3.2498 H         1 <0>         0.0753
     49 H23         4.6474   -0.5171   -5.6711 H         1 <0>         0.1282
     50 H24         1.8352    2.5042   -5.9933 H         1 <0>         0.1662
     51 H25         0.4210    1.1979   -9.6741 H         1 <0>         0.1968
     52 H26         2.0429   -1.6404   -7.1113 H         1 <0>         0.1675
     53 H27         1.9471    1.6483   -2.1382 H         1 <0>         0.0763
     54 H28         3.3941    1.7491   -3.1698 H         1 <0>         0.0586
     55 H29         1.8300    2.3507   -3.7695 H         1 <0>         0.0513
     56 H30         0.2962   -1.2183    5.0328 H         1 <0>         0.3781
@<TRIPOS>BOND
     1    1    2 1
     2    1   28 1
     3    1   29 1
     4    1   30 1
     5    2    8 1
     6    2   12 1
     7    2    3 1
     8    3    4 1
     9    3   31 1
    10    3   32 1
    11    4    5 1
    12    4   33 1
    13    4   34 1
    14    5    6 1
    15    5    7 1
    16    5   27 1
    17    7    8 1
    18    7   35 1
    19    7   36 1
    20    8    9 2
    21    9   10 1
    22    9   37 1
    23   10   11 1
    24   10   38 1
    25   10   39 1
    26   11   16 1
    27   11   12 1
    28   11   40 1
    29   12   13 1
    30   12   41 1
    31   13   14 1
    32   13   42 1
    33   13   43 1
    34   14   15 1
    35   14   44 1
    36   14   45 1
    37   15   19 1
    38   15   16 1
    39   15   26 1
    40   16   17 1
    41   16   46 1
    42   17   18 1
    43   17   47 1
    44   17   48 1
    45   18   19 2
    46   18   49 1
    47   19   20 1
    48   20   25 ar
    49   20   21 ar
    50   21   22 ar
    51   21   50 1
    52   22   23 ar
    53   23   24 ar
    54   23   51 1
    55   24   25 ar
    56   25   52 1
    57   26   53 1
    58   26   54 1
    59   26   55 1
    60   27   56 1
@<TRIPOS>MOLECULE
CHEMBL77062__2
   56    60     0     0     0
SMALL
USER_CHARGES

@<TRIPOS>ATOM
      1 C1         -0.0187    1.5258    0.0104 C.3       1 <0>        -0.1448
      2 C2          0.0021   -0.0041    0.0020 C.3       1 <0>        -0.0128
      3 C3         -1.4446   -0.5042    0.0523 C.3       1 <0>        -0.1072
      4 C4         -2.0876   -0.0668    1.3698 C.3       1 <0>        -0.1165
      5 C5         -1.3486   -0.7116    2.5436 C.3       1 <0>         0.1089
      6 H1         -1.3489   -1.7948    2.4222 H         1 <0>         0.0542
      7 C6          0.0953   -0.2022    2.5792 C.3       1 <0>        -0.1176
      8 C7          0.7327   -0.4727    1.2268 C.2       1 <0>        -0.1042
      9 C8          1.8739   -1.0964    1.1973 C.2       1 <0>        -0.1591
     10 C9          2.5950   -1.4295   -0.0774 C.3       1 <0>        -0.1040
     11 C10         2.1828   -0.4260   -1.1596 C.3       1 <0>        -0.0707
     12 C11         0.6547   -0.4658   -1.2897 C.3       1 <0>        -0.0662
     13 C12         0.2206   -1.9012   -1.6093 C.3       1 <0>        -0.1194
     14 C13         0.7913   -2.2785   -2.9761 C.3       1 <0>        -0.1046
     15 C14         2.2965   -2.1817   -2.9955 C.3       1 <0>        -0.0140
     16 C15         2.8504   -0.8053   -2.4830 C.3       1 <0>        -0.0741
     17 C16         4.3038   -1.2535   -2.1254 C.3       1 <0>        -0.0976
     18 C17         4.1121   -2.6778   -1.6362 C.2       1 <0>        -0.1261
     19 C18         2.9752   -3.2025   -2.1204 C.2       1 <0>        -0.1002
     20 C19         2.4658   -4.5618   -1.8415 C.ar      1 <0>        -0.1266
     21 C20         2.3614   -5.5140   -2.8612 C.ar      1 <0>         0.1580
     22 N1          1.9012   -6.7176   -2.5673 N.ar      1 <0>        -0.5149
     23 C21         1.5438   -7.0252   -1.3361 C.ar      1 <0>         0.2885
     24 N2          1.6258   -6.1587   -0.3458 N.ar      1 <0>        -0.5138
     25 C22         2.0800   -4.9343   -0.5494 C.ar      1 <0>         0.1543
     26 C23         2.7799   -2.3775   -4.4338 C.3       1 <0>        -0.1456
     27 O1         -2.0050   -0.3690    3.7658 O.3       1 <0>        -0.5688
     28 H2          1.0039    1.9031    0.0027 H         1 <0>         0.0551
     29 H3         -0.5459    1.8868   -0.8726 H         1 <0>         0.0570
     30 H4         -0.5289    1.8773    0.9072 H         1 <0>         0.0596
     31 H5         -2.0041   -0.0829   -0.7829 H         1 <0>         0.0719
     32 H6         -1.4557   -1.5921   -0.0141 H         1 <0>         0.0705
     33 H7         -2.0316    1.0182    1.4580 H         1 <0>         0.0732
     34 H8         -3.1323   -0.3776    1.3842 H         1 <0>         0.0694
     35 H9          0.1018    0.8691    2.7804 H         1 <0>         0.0789
     36 H10         0.6501   -0.7257    3.3578 H         1 <0>         0.0682
     37 H11         2.3243   -1.3890    2.1343 H         1 <0>         0.1015
     38 H12         3.6710   -1.3688    0.0856 H         1 <0>         0.0766
     39 H13         2.3288   -2.4378   -0.3944 H         1 <0>         0.0963
     40 H14         2.5012    0.5744   -0.8666 H         1 <0>         0.0733
     41 H15         0.3441    0.1878   -2.1049 H         1 <0>         0.0740
     42 H16         0.6069   -2.5802   -0.8492 H         1 <0>         0.0664
     43 H17        -0.8675   -1.9590   -1.6364 H         1 <0>         0.0682
     44 H18         0.4974   -3.3007   -3.2146 H         1 <0>         0.0572
     45 H19         0.3818   -1.6068   -3.7305 H         1 <0>         0.0657
     46 H20         2.7995   -0.0099   -3.2265 H         1 <0>         0.0957
     47 H21         4.9420   -1.2321   -3.0088 H         1 <0>         0.0804
     48 H22         4.7168   -0.6268   -1.3350 H         1 <0>         0.0778
     49 H23         4.7909   -3.2035   -0.9810 H         1 <0>         0.1267
     50 H24         2.6519   -5.2694   -3.8722 H         1 <0>         0.1667
     51 H25         1.1716   -8.0183   -1.1324 H         1 <0>         0.1967
     52 H26         2.1487   -4.2316    0.2678 H         1 <0>         0.1657
     53 H27         2.3601   -1.5964   -5.0677 H         1 <0>         0.0602
     54 H28         3.8682   -2.3225   -4.4620 H         1 <0>         0.0597
     55 H29         2.4559   -3.3530   -4.7965 H         1 <0>         0.0539
     56 H30        -1.5895   -0.7446    4.5541 H         1 <0>         0.3779
@<TRIPOS>BOND
     1    1    2 1
     2    1   28 1
     3    1   29 1
     4    1   30 1
     5    2    8 1
     6    2   12 1
     7    2    3 1
     8    3    4 1
     9    3   31 1
    10    3   32 1
    11    4    5 1
    12    4   33 1
    13    4   34 1
    14    5    6 1
    15    5    7 1
    16    5   27 1
    17    7    8 1
    18    7   35 1
    19    7   36 1
    20    8    9 2
    21    9   10 1
    22    9   37 1
    23   10   11 1
    24   10   38 1
    25   10   39 1
    26   11   16 1
    27   11   12 1
    28   11   40 1
    29   12   13 1
    30   12   41 1
    31   13   14 1
    32   13   42 1
    33   13   43 1
    34   14   15 1
    35   14   44 1
    36   14   45 1
    37   15   19 1
    38   15   16 1
    39   15   26 1
    40   16   17 1
    41   16   46 1
    42   17   18 1
    43   17   47 1
    44   17   48 1
    45   18   19 2
    46   18   49 1
    47   19   20 1
    48   20   25 ar
    49   20   21 ar
    50   21   22 ar
    51   21   50 1
    52   22   23 ar
    53   23   24 ar
    54   23   51 1
    55   24   25 ar
    56   25   52 1
    57   26   53 1
    58   26   54 1
    59   26   55 1
    60   27   56 1
@<TRIPOS>MOLECULE
CHEMBL77062__3
   56    60     0     0     0
SMALL
USER_CHARGES

@<TRIPOS>ATOM
      1 C1         -0.9897    1.2933   -0.4456 C.3       1 <0>        -0.1475
      2 C2         -0.8766   -0.2398   -0.4886 C.3       1 <0>        -0.0110
      3 C3         -2.2691   -0.7982   -0.7885 C.3       1 <0>        -0.1020
      4 C4         -3.2349   -0.4817    0.3527 C.3       1 <0>        -0.1146
      5 C5         -2.7284   -1.0964    1.6573 C.3       1 <0>         0.1095
      6 H1         -2.6087   -2.1733    1.5244 H         1 <0>         0.0540
      7 C6         -1.3772   -0.4818    2.0359 C.3       1 <0>        -0.1166
      8 C7         -0.4291   -0.6927    0.8654 C.2       1 <0>        -0.1040
      9 C8          0.7102   -1.2734    1.0888 C.2       1 <0>        -0.1526
     10 C9          1.6866   -1.5946    0.0052 C.3       1 <0>        -0.0856
     11 C10         1.5461   -0.6338   -1.1896 C.3       1 <0>        -0.0560
     12 C11         0.0875   -0.5495   -1.6132 C.3       1 <0>        -0.0749
     13 C12        -0.3367   -1.7281   -2.4690 C.3       1 <0>        -0.1087
     14 C13         0.4429   -1.8070   -3.7933 C.3       1 <0>        -0.1022
     15 C14         1.7359   -1.0427   -3.6928 C.3       1 <0>        -0.0158
     16 C15         2.3653   -1.2578   -2.3006 C.3       1 <0>        -0.0774
     17 C16         3.7465   -0.6410   -2.5845 C.3       1 <0>        -0.0924
     18 C17         4.0265   -1.2625   -3.9572 C.2       1 <0>        -0.1384
     19 C18         2.8675   -1.5093   -4.5849 C.2       1 <0>        -0.0983
     20 C19         2.7032   -2.1272   -5.9177 C.ar      1 <0>        -0.1303
     21 C20         2.1672   -1.4004   -6.9862 C.ar      1 <0>         0.1592
     22 N1          2.0384   -1.9921   -8.1610 N.ar      1 <0>        -0.5161
     23 C21         2.4064   -3.2464   -8.3328 C.ar      1 <0>         0.2890
     24 N2          2.9158   -3.9673   -7.3535 N.ar      1 <0>        -0.5159
     25 C22         3.0848   -3.4533   -6.1476 C.ar      1 <0>         0.1575
     26 C23         1.5329    0.4322   -4.0379 C.3       1 <0>        -0.1496
     27 O1         -3.6742   -0.8497    2.6999 O.3       1 <0>        -0.5690
     28 H2         -0.0182    1.7226   -0.2009 H         1 <0>         0.0552
     29 H3         -1.3149    1.6611   -1.4188 H         1 <0>         0.0571
     30 H4         -1.7164    1.5828    0.3135 H         1 <0>         0.0589
     31 H5         -2.6428   -0.3524   -1.7130 H         1 <0>         0.0724
     32 H6         -2.2075   -1.8818   -0.9153 H         1 <0>         0.0679
     33 H7         -3.3617    0.5912    0.4664 H         1 <0>         0.0737
     34 H8         -4.2104   -0.9219    0.1139 H         1 <0>         0.0674
     35 H9         -1.4899    0.5783    2.2459 H         1 <0>         0.0803
     36 H10        -0.9829   -0.9895    2.9173 H         1 <0>         0.0679
     37 H11         0.9617   -1.5337    2.1090 H         1 <0>         0.1036
     38 H12         2.7030   -1.5219    0.3956 H         1 <0>         0.0680
     39 H13         1.5170   -2.6164   -0.3427 H         1 <0>         0.0729
     40 H14         1.9340    0.3480   -0.9212 H         1 <0>         0.0797
     41 H15        -0.0168    0.3494   -2.2438 H         1 <0>         0.0747
     42 H16        -0.1930   -2.6624   -1.9124 H         1 <0>         0.0586
     43 H17        -1.4058   -1.6480   -2.7048 H         1 <0>         0.0677
     44 H18         0.6574   -2.8610   -4.0215 H         1 <0>         0.0595
     45 H19        -0.1678   -1.4015   -4.6084 H         1 <0>         0.0605
     46 H20         2.4870   -2.3397   -2.0969 H         1 <0>         0.0822
     47 H21         3.7256    0.4394   -2.6219 H         1 <0>         0.0878
     48 H22         4.4780   -0.9954   -1.8534 H         1 <0>         0.0720
     49 H23         5.0058   -1.4668   -4.3537 H         1 <0>         0.1270
     50 H24         1.8631   -0.3727   -6.8531 H         1 <0>         0.1663
     51 H25         2.2863   -3.6978   -9.3066 H         1 <0>         0.1969
     52 H26         3.5071   -4.0487   -5.3516 H         1 <0>         0.1671
     53 H27         0.9448    0.9110   -3.2550 H         1 <0>         0.0701
     54 H28         2.5026    0.9239   -4.1160 H         1 <0>         0.0599
     55 H29         1.0066    0.5137   -4.9890 H         1 <0>         0.0560
     56 H30        -3.4168   -1.2127    3.5584 H         1 <0>         0.3783
@<TRIPOS>BOND
     1    1    2 1
     2    1   28 1
     3    1   29 1
     4    1   30 1
     5    2    8 1
     6    2   12 1
     7    2    3 1
     8    3    4 1
     9    3   31 1
    10    3   32 1
    11    4    5 1
    12    4   33 1
    13    4   34 1
    14    5    6 1
    15    5    7 1
    16    5   27 1
    17    7    8 1
    18    7   35 1
    19    7   36 1
    20    8    9 2
    21    9   10 1
    22    9   37 1
    23   10   11 1
    24   10   38 1
    25   10   39 1
    26   11   16 1
    27   11   12 1
    28   11   40 1
    29   12   13 1
    30   12   41 1
    31   13   14 1
    32   13   42 1
    33   13   43 1
    34   14   15 1
    35   14   44 1
    36   14   45 1
    37   15   19 1
    38   15   16 1
    39   15   26 1
    40   16   17 1
    41   16   46 1
    42   17   18 1
    43   17   47 1
    44   17   48 1
    45   18   19 2
    46   18   49 1
    47   19   20 1
    48   20   25 ar
    49   20   21 ar
    50   21   22 ar
    51   21   50 1
    52   22   23 ar
    53   23   24 ar
    54   23   51 1
    55   24   25 ar
    56   25   52 1
    57   26   53 1
    58   26   54 1
    59   26   55 1
    60   27   56 1
@<TRIPOS>MOLECULE
CHEMBL77062__4
   56    60     0     0     0
SMALL
USER_CHARGES

@<TRIPOS>ATOM
      1 C1          0.4608    1.5151    0.3928 C.3       1 <0>        -0.1552
      2 C2          0.5696   -0.0078    0.4361 C.3       1 <0>        -0.0018
      3 C3         -0.7671   -0.5547    0.9718 C.3       1 <0>        -0.1037
      4 C4         -1.0449   -0.0330    2.3766 C.3       1 <0>        -0.1138
      5 C5          0.0622   -0.4353    3.3495 C.3       1 <0>         0.1106
      6 H1          0.1241   -1.5234    3.4004 H         1 <0>         0.0538
      7 C6          1.4069    0.1262    2.8757 C.3       1 <0>        -0.1173
      8 C7          1.6276   -0.3565    1.4513 C.2       1 <0>        -0.1049
      9 C8          2.6769   -1.0722    1.1956 C.2       1 <0>        -0.1525
     10 C9          2.9413   -1.6927   -0.1444 C.3       1 <0>        -0.0863
     11 C10         2.3009   -0.8508   -1.2453 C.3       1 <0>        -0.0650
     12 C11         0.8363   -0.5856   -0.9263 C.3       1 <0>        -0.0633
     13 C12         0.1850    0.1352   -2.0940 C.3       1 <0>        -0.1100
     14 C13         1.2008    0.5767   -3.1369 C.3       1 <0>        -0.1009
     15 C14         2.4283    1.2834   -2.5709 C.3       1 <0>        -0.0045
     16 C15         3.0573    0.4574   -1.4395 C.3       1 <0>        -0.0685
     17 C16         4.4860    0.1558   -1.9323 C.3       1 <0>        -0.0985
     18 C17         4.5841    0.7252   -3.3232 C.2       1 <0>        -0.1312
     19 C18         3.4722    1.3389   -3.6739 C.2       1 <0>        -0.0976
     20 C19         3.2654    2.0063   -4.9766 C.ar      1 <0>        -0.1332
     21 C20         3.0902    3.3921   -5.0550 C.ar      1 <0>         0.1556
     22 N1          2.9088    3.9475   -6.2405 N.ar      1 <0>        -0.5162
     23 C21         2.8917    3.2157   -7.3370 C.ar      1 <0>         0.2884
     24 N2          3.0528    1.9074   -7.3085 N.ar      1 <0>        -0.5161
     25 C22         3.2453    1.2707   -6.1664 C.ar      1 <0>         0.1571
     26 C23         2.0953    2.7105   -2.1234 C.3       1 <0>        -0.1544
     27 O1         -0.2342    0.0816    4.6489 O.3       1 <0>        -0.5692
     28 H2          1.4346    1.9423    0.1533 H         1 <0>         0.0650
     29 H3         -0.2612    1.8062   -0.3701 H         1 <0>         0.0624
     30 H4          0.1314    1.8836    1.3643 H         1 <0>         0.0600
     31 H5         -1.5689   -0.2474    0.2990 H         1 <0>         0.0712
     32 H6         -0.7157   -1.6455    0.9911 H         1 <0>         0.0628
     33 H7         -1.1657    1.0479    2.3772 H         1 <0>         0.0749
     34 H8         -1.9897   -0.4717    2.7304 H         1 <0>         0.0654
     35 H9          1.3957    1.2111    2.9180 H         1 <0>         0.0810
     36 H10         2.2047   -0.2548    3.5165 H         1 <0>         0.0672
     37 H11         3.3988   -1.2311    1.9851 H         1 <0>         0.1029
     38 H12         4.0192   -1.7646   -0.3047 H         1 <0>         0.0736
     39 H13         2.5189   -2.7021   -0.1614 H         1 <0>         0.0728
     40 H14         2.3535   -1.4185   -2.1901 H         1 <0>         0.0730
     41 H15         0.3584   -1.5986   -0.9140 H         1 <0>         0.0566
     42 H16        -0.4922   -0.5902   -2.5897 H         1 <0>         0.0542
     43 H17        -0.4381    0.9647   -1.7981 H         1 <0>         0.0724
     44 H18         1.5285   -0.3007   -3.7032 H         1 <0>         0.0600
     45 H19         0.7000    1.2549   -3.8383 H         1 <0>         0.0545
     46 H20         3.0880    1.0281   -0.5069 H         1 <0>         0.0866
     47 H21         5.2205    0.6263   -1.2738 H         1 <0>         0.0766
     48 H22         4.6587   -0.9241   -1.9547 H         1 <0>         0.0803
     49 H23         5.4587    0.6420   -3.9581 H         1 <0>         0.1258
     50 H24         3.1025    3.9982   -4.1611 H         1 <0>         0.1691
     51 H25         2.7407    3.7033   -8.2887 H         1 <0>         0.1967
     52 H26         3.3811    0.1994   -6.1516 H         1 <0>         0.1667
     53 H27         1.2642    2.6856   -1.4185 H         1 <0>         0.0740
     54 H28         2.9672    3.1530   -1.6416 H         1 <0>         0.0583
     55 H29         1.8176    3.3081   -2.9916 H         1 <0>         0.0556
     56 H30         0.4280   -0.1359    5.3192 H         1 <0>         0.3786
@<TRIPOS>BOND
     1    1    2 1
     2    1   28 1
     3    1   29 1
     4    1   30 1
     5    2    8 1
     6    2   12 1
     7    2    3 1
     8    3    4 1
     9    3   31 1
    10    3   32 1
    11    4    5 1
    12    4   33 1
    13    4   34 1
    14    5    6 1
    15    5    7 1
    16    5   27 1
    17    7    8 1
    18    7   35 1
    19    7   36 1
    20    8    9 2
    21    9   10 1
    22    9   37 1
    23   10   11 1
    24   10   38 1
    25   10   39 1
    26   11   16 1
    27   11   12 1
    28   11   40 1
    29   12   13 1
    30   12   41 1
    31   13   14 1
    32   13   42 1
    33   13   43 1
    34   14   15 1
    35   14   44 1
    36   14   45 1
    37   15   19 1
    38   15   16 1
    39   15   26 1
    40   16   17 1
    41   16   46 1
    42   17   18 1
    43   17   47 1
    44   17   48 1
    45   18   19 2
    46   18   49 1
    47   19   20 1
    48   20   25 ar
    49   20   21 ar
    50   21   22 ar
    51   21   50 1
    52   22   23 ar
    53   23   24 ar
    54   23   51 1
    55   24   25 ar
    56   25   52 1
    57   26   53 1
    58   26   54 1
    59   26   55 1
    60   27   56 1
@<TRIPOS>MOLECULE
CHEMBL77062__5
   56    60     0     0     0
SMALL
USER_CHARGES

@<TRIPOS>ATOM
      1 C1         -0.0615    1.2115    0.2335 C.3       1 <0>        -0.1415
      2 C2          0.0083   -0.3131    0.1206 C.3       1 <0>        -0.0059
      3 C3         -1.4286   -0.8416    0.2174 C.3       1 <0>        -0.1033
      4 C4         -1.6577   -1.5826    1.5254 C.3       1 <0>        -0.1066
      5 C5         -1.2362   -0.7729    2.7424 C.3       1 <0>         0.1124
      6 H1         -1.4418   -1.3530    3.6488 H         1 <0>         0.0514
      7 C6          0.2590   -0.4509    2.6857 C.3       1 <0>        -0.1216
      8 C7          0.7751   -0.8305    1.3078 C.2       1 <0>        -0.0994
      9 C8          1.8492   -1.5520    1.2307 C.2       1 <0>        -0.1645
     10 C9          2.4710   -1.9129   -0.0966 C.3       1 <0>        -0.0843
     11 C10         1.3522   -2.0450   -1.1202 C.3       1 <0>        -0.0575
     12 C11         0.5980   -0.7037   -1.2164 C.3       1 <0>        -0.0681
     13 C12         1.4230    0.3616   -1.9087 C.3       1 <0>        -0.1056
     14 C13         1.8281   -0.0895   -3.3308 C.3       1 <0>        -0.1035
     15 C14         2.6063   -1.3719   -3.2357 C.3       1 <0>        -0.0175
     16 C15         1.7723   -2.4381   -2.4961 C.3       1 <0>        -0.0726
     17 C16         2.7146   -3.6304   -2.7186 C.3       1 <0>        -0.0901
     18 C17         3.0221   -3.4233   -4.2087 C.2       1 <0>        -0.1390
     19 C18         2.9358   -2.1167   -4.5073 C.2       1 <0>        -0.0969
     20 C19         3.1290   -1.5009   -5.8372 C.ar      1 <0>        -0.1294
     21 C20         4.1990   -0.6328   -6.0792 C.ar      1 <0>         0.1582
     22 N1          4.3342   -0.1050   -7.2834 N.ar      1 <0>        -0.5161
     23 C21         3.4796   -0.3860   -8.2471 C.ar      1 <0>         0.2888
     24 N2          2.4578   -1.1985   -8.0622 N.ar      1 <0>        -0.5159
     25 C22         2.2503   -1.7745   -6.8909 C.ar      1 <0>         0.1580
     26 C23         3.9606   -1.0945   -2.5842 C.3       1 <0>        -0.1503
     27 O1         -1.9895    0.4417    2.8005 O.3       1 <0>        -0.5649
     28 H2          0.9482    1.6221    0.2383 H         1 <0>         0.0507
     29 H3         -0.6133    1.6138   -0.6162 H         1 <0>         0.0540
     30 H4         -0.5693    1.4845    1.1585 H         1 <0>         0.0670
     31 H5         -2.1183    0.0004    0.1444 H         1 <0>         0.0704
     32 H6         -1.6098   -1.5194   -0.6198 H         1 <0>         0.0617
     33 H7         -2.7213   -1.8276    1.6144 H         1 <0>         0.0650
     34 H8         -1.0976   -2.5220    1.5098 H         1 <0>         0.0731
     35 H9          0.4267    0.6094    2.8757 H         1 <0>         0.0816
     36 H10         0.7901   -1.0333    3.4456 H         1 <0>         0.0705
     37 H11         2.3145   -1.9084    2.1293 H         1 <0>         0.1041
     38 H12         3.1469   -1.0963   -0.3340 H         1 <0>         0.0822
     39 H13         3.0147   -2.8470    0.0042 H         1 <0>         0.0702
     40 H14         0.6283   -2.8045   -0.7356 H         1 <0>         0.0705
     41 H15        -0.2670   -0.8979   -1.8842 H         1 <0>         0.0607
     42 H16         0.8290    1.2727   -2.0471 H         1 <0>         0.0634
     43 H17         2.3061    0.6006   -1.3285 H         1 <0>         0.0662
     44 H18         0.9282   -0.2385   -3.9314 H         1 <0>         0.0610
     45 H19         2.4428    0.6888   -3.7899 H         1 <0>         0.0610
     46 H20         0.8440   -2.6412   -3.0970 H         1 <0>         0.0741
     47 H21         3.6023   -3.5952   -2.1070 H         1 <0>         0.0897
     48 H22         2.1791   -4.5733   -2.5746 H         1 <0>         0.0708
     49 H23         3.2686   -4.2086   -4.9040 H         1 <0>         0.1278
     50 H24         4.9030   -0.3975   -5.2948 H         1 <0>         0.1665
     51 H25         3.6207    0.0638   -9.2188 H         1 <0>         0.1969
     52 H26         1.4137   -2.4425   -6.7484 H         1 <0>         0.1672
     53 H27         3.8115   -0.5361   -1.6600 H         1 <0>         0.0681
     54 H28         4.4571   -2.0391   -2.3619 H         1 <0>         0.0623
     55 H29         4.5789   -0.5106   -3.2659 H         1 <0>         0.0535
     56 H30        -1.7692    1.0055    3.5546 H         1 <0>         0.3758
@<TRIPOS>BOND
     1    1    2 1
     2    1   28 1
     3    1   29 1
     4    1   30 1
     5    2    8 1
     6    2   12 1
     7    2    3 1
     8    3    4 1
     9    3   31 1
    10    3   32 1
    11    4    5 1
    12    4   33 1
    13    4   34 1
    14    5    6 1
    15    5    7 1
    16    5   27 1
    17    7    8 1
    18    7   35 1
    19    7   36 1
    20    8    9 2
    21    9   10 1
    22    9   37 1
    23   10   11 1
    24   10   38 1
    25   10   39 1
    26   11   16 1
    27   11   12 1
    28   11   40 1
    29   12   13 1
    30   12   41 1
    31   13   14 1
    32   13   42 1
    33   13   43 1
    34   14   15 1
    35   14   44 1
    36   14   45 1
    37   15   19 1
    38   15   16 1
    39   15   26 1
    40   16   17 1
    41   16   46 1
    42   17   18 1
    43   17   47 1
    44   17   48 1
    45   18   19 2
    46   18   49 1
    47   19   20 1
    48   20   25 ar
    49   20   21 ar
    50   21   22 ar
    51   21   50 1
    52   22   23 ar
    53   23   24 ar
    54   23   51 1
    55   24   25 ar
    56   25   52 1
    57   26   53 1
    58   26   54 1
    59   26   55 1
    60   27   56 1
@<TRIPOS>MOLECULE
CHEMBL77062__6
   56    60     0     0     0
SMALL
USER_CHARGES

@<TRIPOS>ATOM
      1 C1         -0.3944    1.3799   -0.1704 C.3       1 <0>        -0.1344
      2 C2         -0.4881   -0.1466   -0.1238 C.3       1 <0>        -0.0111
      3 C3         -1.8987   -0.5277    0.3205 C.3       1 <0>        -0.0931
      4 C4         -1.9557   -0.6472    1.8426 C.3       1 <0>        -0.1116
      5 C5         -1.0324    0.3704    2.5094 C.3       1 <0>         0.1066
      6 H1         -1.2351    0.3981    3.5800 H         1 <0>         0.0531
      7 C6          0.4300   -0.0345    2.2759 C.3       1 <0>        -0.1189
      8 C7          0.5030   -0.6509    0.8883 C.2       1 <0>        -0.0978
      9 C8          1.3691   -1.5820    0.6462 C.2       1 <0>        -0.1642
     10 C9          1.4804   -2.2927   -0.6680 C.3       1 <0>        -0.0829
     11 C10         0.1677   -2.1585   -1.4542 C.3       1 <0>        -0.0706
     12 C11        -0.2097   -0.6883   -1.5229 C.3       1 <0>        -0.0647
     13 C12        -1.4953   -0.5467   -2.3505 C.3       1 <0>        -0.1131
     14 C13        -1.2197   -1.0309   -3.7716 C.3       1 <0>        -0.1058
     15 C14        -0.7926   -2.4781   -3.7771 C.3       1 <0>        -0.0172
     16 C15         0.3994   -2.7466   -2.8489 C.3       1 <0>        -0.0745
     17 C16         0.1952   -4.2896   -2.7069 C.3       1 <0>        -0.0994
     18 C17        -1.3150   -4.4397   -2.7509 C.2       1 <0>        -0.1335
     19 C18        -1.8742   -3.4263   -3.3306 C.2       1 <0>        -0.0830
     20 C19        -3.3234   -3.2333   -3.5490 C.ar      1 <0>        -0.1281
     21 C20        -3.8628   -3.2359   -4.8399 C.ar      1 <0>         0.1579
     22 N1         -5.1642   -3.0601   -4.9893 N.ar      1 <0>        -0.5156
     23 C21        -5.9493   -2.8844   -3.9448 C.ar      1 <0>         0.2888
     24 N2         -5.4828   -2.8750   -2.7117 N.ar      1 <0>        -0.5144
     25 C22        -4.1950   -3.0486   -2.4704 C.ar      1 <0>         0.1589
     26 C23        -0.3676   -2.8580   -5.1970 C.3       1 <0>        -0.1463
     27 O1         -1.2639    1.6636    1.9472 O.3       1 <0>        -0.5500
     28 H2          0.2318    1.6800   -1.0106 H         1 <0>         0.0305
     29 H3         -1.3922    1.8016   -0.2920 H         1 <0>         0.0579
     30 H4          0.0438    1.7455    0.7582 H         1 <0>         0.0808
     31 H5         -2.6007    0.2385   -0.0083 H         1 <0>         0.0668
     32 H6         -2.1731   -1.4827   -0.1275 H         1 <0>         0.0586
     33 H7         -2.9787   -0.4746    2.1768 H         1 <0>         0.0646
     34 H8         -1.6501   -1.6521    2.1340 H         1 <0>         0.0713
     35 H9          1.0722    0.8448    2.3266 H         1 <0>         0.0776
     36 H10         0.7378   -0.7649    3.0241 H         1 <0>         0.0752
     37 H11         2.0503   -1.8621    1.4361 H         1 <0>         0.0993
     38 H12         2.2945   -1.8567   -1.2469 H         1 <0>         0.0704
     39 H13         1.6897   -3.3478   -0.4917 H         1 <0>         0.0691
     40 H14        -0.6206   -2.7160   -0.9483 H         1 <0>         0.0758
     41 H15         0.6020   -0.1255   -1.9840 H         1 <0>         0.0717
     42 H16        -2.2852   -1.1515   -1.9051 H         1 <0>         0.0665
     43 H17        -1.8017    0.4991   -2.3737 H         1 <0>         0.0622
     44 H18        -2.1254   -0.9227   -4.3684 H         1 <0>         0.0561
     45 H19        -0.4286   -0.4225   -4.2098 H         1 <0>         0.0645
     46 H20         1.3661   -2.4664   -3.2672 H         1 <0>         0.0962
     47 H21         0.6595   -4.8181   -3.5395 H         1 <0>         0.0807
     48 H22         0.5903   -4.6447   -1.7551 H         1 <0>         0.0757
     49 H23        -1.8662   -5.2730   -2.3408 H         1 <0>         0.1209
     50 H24        -3.2260   -3.3788   -5.7004 H         1 <0>         0.1662
     51 H25        -7.0080   -2.7434   -4.1044 H         1 <0>         0.1965
     52 H26        -3.8210   -3.0442   -1.4572 H         1 <0>         0.1647
     53 H27         0.4714   -2.2337   -5.5044 H         1 <0>         0.0604
     54 H28        -0.0679   -3.9058   -5.2185 H         1 <0>         0.0597
     55 H29        -1.2035   -2.7051   -5.8796 H         1 <0>         0.0536
     56 H30        -0.7807    2.3762    2.3874 H         1 <0>         0.3714
@<TRIPOS>BOND
     1    1    2 1
     2    1   28 1
     3    1   29 1
     4    1   30 1
     5    2    8 1
     6    2   12 1
     7    2    3 1
     8    3    4 1
     9    3   31 1
    10    3   32 1
    11    4    5 1
    12    4   33 1
    13    4   34 1
    14    5    6 1
    15    5    7 1
    16    5   27 1
    17    7    8 1
    18    7   35 1
    19    7   36 1
    20    8    9 2
    21    9   10 1
    22    9   37 1
    23   10   11 1
    24   10   38 1
    25   10   39 1
    26   11   16 1
    27   11   12 1
    28   11   40 1
    29   12   13 1
    30   12   41 1
    31   13   14 1
    32   13   42 1
    33   13   43 1
    34   14   15 1
    35   14   44 1
    36   14   45 1
    37   15   19 1
    38   15   16 1
    39   15   26 1
    40   16   17 1
    41   16   46 1
    42   17   18 1
    43   17   47 1
    44   17   48 1
    45   18   19 2
    46   18   49 1
    47   19   20 1
    48   20   25 ar
    49   20   21 ar
    50   21   22 ar
    51   21   50 1
    52   22   23 ar
    53   23   24 ar
    54   23   51 1
    55   24   25 ar
    56   25   52 1
    57   26   53 1
    58   26   54 1
    59   26   55 1
    60   27   56 1
@<TRIPOS>MOLECULE
CHEMBL77062__7
   56    60     0     0     0
SMALL
USER_CHARGES

@<TRIPOS>ATOM
      1 C1         -0.2615    2.1837   -0.8685 C.3       1 <0>        -0.1448
      2 C2         -0.3369    0.6760   -0.6053 C.3       1 <0>        -0.0132
      3 C3         -1.7932    0.2380   -0.6528 C.3       1 <0>        -0.1008
      4 C4         -2.3106   -0.0742    0.7483 C.3       1 <0>        -0.1084
      5 C5         -1.9760    1.0128    1.7595 C.3       1 <0>         0.1136
      6 H1         -2.4015    0.7365    2.7318 H         1 <0>         0.0503
      7 C6         -0.4597    1.1740    1.9124 C.3       1 <0>        -0.1214
      8 C7          0.1997    0.4041    0.7804 C.2       1 <0>        -0.1000
      9 C8          1.1410   -0.4447    1.0507 C.2       1 <0>        -0.1624
     10 C9          1.8007   -1.3137    0.0092 C.3       1 <0>        -0.0772
     11 C10         0.8274   -1.4397   -1.1621 C.3       1 <0>        -0.0680
     12 C11         0.5168   -0.0226   -1.6623 C.3       1 <0>        -0.0698
     13 C12        -0.1754   -0.0615   -3.0138 C.3       1 <0>        -0.1082
     14 C13         0.6849   -0.7270   -4.1005 C.3       1 <0>        -0.1018
     15 C14         1.8024   -1.5314   -3.4922 C.3       1 <0>        -0.0144
     16 C15         1.2737   -2.3250   -2.2733 C.3       1 <0>        -0.0688
     17 C16         2.4978   -3.2319   -2.0620 C.3       1 <0>        -0.0898
     18 C17         2.7724   -3.6348   -3.5153 C.2       1 <0>        -0.1389
     19 C18         2.3635   -2.6556   -4.3348 C.2       1 <0>        -0.0980
     20 C19         2.4500   -2.6543   -5.8105 C.ar      1 <0>        -0.1300
     21 C20         3.2757   -1.7461   -6.4817 C.ar      1 <0>         0.1589
     22 N1          3.3231   -1.7802   -7.8021 N.ar      1 <0>        -0.5161
     23 C21         2.6074   -2.6524   -8.4842 C.ar      1 <0>         0.2885
     24 N2          1.8167   -3.5255   -7.8920 N.ar      1 <0>        -0.5160
     25 C22         1.7129   -3.5650   -6.5750 C.ar      1 <0>         0.1573
     26 C23         2.9924   -0.6347   -3.1521 C.3       1 <0>        -0.1506
     27 O1         -2.5572    2.2524    1.3491 O.3       1 <0>        -0.5633
     28 H2          0.7752    2.5132   -0.7997 H         1 <0>         0.0479
     29 H3         -0.6455    2.3980   -1.8659 H         1 <0>         0.0548
     30 H4         -0.8608    2.7123   -0.1272 H         1 <0>         0.0701
     31 H5         -2.3963    1.0405   -1.0862 H         1 <0>         0.0685
     32 H6         -1.8934   -0.6506   -1.2763 H         1 <0>         0.0662
     33 H7         -3.3977   -0.1935    0.7023 H         1 <0>         0.0646
     34 H8         -1.8823   -1.0222    1.0842 H         1 <0>         0.0725
     35 H9         -0.1834    2.2265    1.8684 H         1 <0>         0.0813
     36 H10        -0.1392    0.7611    2.8728 H         1 <0>         0.0711
     37 H11         1.4757   -0.5351    2.0708 H         1 <0>         0.1021
     38 H12         2.7286   -0.8511   -0.3114 H         1 <0>         0.0744
     39 H13         1.9993   -2.2959    0.4344 H         1 <0>         0.0726
     40 H14        -0.1180   -1.8564   -0.7506 H         1 <0>         0.0684
     41 H15         1.4349    0.5635   -1.7270 H         1 <0>         0.0798
     42 H16        -1.1209   -0.6098   -2.9296 H         1 <0>         0.0633
     43 H17        -0.4142    0.9597   -3.3352 H         1 <0>         0.0627
     44 H18         0.0498   -1.3814   -4.7127 H         1 <0>         0.0592
     45 H19         1.1029    0.0460   -4.7584 H         1 <0>         0.0584
     46 H20         0.4225   -2.9654   -2.5947 H         1 <0>         0.0765
     47 H21         3.3369   -2.7096   -1.6236 H         1 <0>         0.0885
     48 H22         2.2313   -4.1090   -1.4695 H         1 <0>         0.0716
     49 H23         3.2175   -4.5653   -3.8260 H         1 <0>         0.1276
     50 H24         3.8647   -1.0284   -5.9299 H         1 <0>         0.1663
     51 H25         2.6707   -2.6514   -9.5624 H         1 <0>         0.1967
     52 H26         1.0665   -4.2862   -6.0969 H         1 <0>         0.1671
     53 H27         2.7221    0.0331   -2.3341 H         1 <0>         0.0716
     54 H28         3.8388   -1.2525   -2.8522 H         1 <0>         0.0591
     55 H29         3.2649   -0.0452   -4.0275 H         1 <0>         0.0549
     56 H30        -2.3811    2.9880    1.9516 H         1 <0>         0.3757
@<TRIPOS>BOND
     1    1    2 1
     2    1   28 1
     3    1   29 1
     4    1   30 1
     5    2    8 1
     6    2   12 1
     7    2    3 1
     8    3    4 1
     9    3   31 1
    10    3   32 1
    11    4    5 1
    12    4   33 1
    13    4   34 1
    14    5    6 1
    15    5    7 1
    16    5   27 1
    17    7    8 1
    18    7   35 1
    19    7   36 1
    20    8    9 2
    21    9   10 1
    22    9   37 1
    23   10   11 1
    24   10   38 1
    25   10   39 1
    26   11   16 1
    27   11   12 1
    28   11   40 1
    29   12   13 1
    30   12   41 1
    31   13   14 1
    32   13   42 1
    33   13   43 1
    34   14   15 1
    35   14   44 1
    36   14   45 1
    37   15   19 1
    38   15   16 1
    39   15   26 1
    40   16   17 1
    41   16   46 1
    42   17   18 1
    43   17   47 1
    44   17   48 1
    45   18   19 2
    46   18   49 1
    47   19   20 1
    48   20   25 ar
    49   20   21 ar
    50   21   22 ar
    51   21   50 1
    52   22   23 ar
    53   23   24 ar
    54   23   51 1
    55   24   25 ar
    56   25   52 1
    57   26   53 1
    58   26   54 1
    59   26   55 1
    60   27   56 1
@<TRIPOS>MOLECULE
CHEMBL82307
   46    49     0     0     0
SMALL
USER_CHARGES

@<TRIPOS>ATOM
      1 C1         -0.0173    1.4248    0.0099 C.3       1 <0>         0.0275
      2 O1          0.0021   -0.0041    0.0020 O.3       1 <0>        -0.3179
      3 C2          0.6058   -0.6071   -1.0557 C.ar      1 <0>         0.1332
      4 C3          1.1736    0.1594   -2.0635 C.ar      1 <0>        -0.2077
      5 C4          1.7740   -0.4654   -3.1354 C.ar      1 <0>        -0.0570
      6 C5          1.8203   -1.8505   -3.2132 C.ar      1 <0>        -0.1024
      7 C6          1.2731   -2.6187   -2.2064 C.ar      1 <0>        -0.0307
      8 C7          0.6616   -1.9870   -1.1290 C.ar      1 <0>        -0.1600
      9 C8          1.3226   -4.1222   -2.1800 C.3       1 <0>        -0.0785
     10 C9          1.5905   -4.7175   -3.5610 C.3       1 <0>        -0.0947
     11 C10         2.7253   -3.9212   -4.1815 C.2       1 <0>        -0.0304
     12 C11         3.8703   -4.5290   -4.4761 C.2       1 <0>        -0.2270
     13 C12         4.9703   -3.7149   -5.0185 C.2       1 <0>         0.3882
     14 O2          5.8190   -4.1804   -5.7499 O.2       1 <0>        -0.4525
     15 C13         4.9731   -2.2547   -4.6031 C.3       1 <0>        -0.1667
     16 C14         3.6106   -1.6651   -4.9661 C.3       1 <0>        -0.1093
     17 C15         2.4642   -2.4715   -4.4193 C.3       1 <0>         0.0233
     18 C16         1.3964   -2.4249   -5.5141 C.3       1 <0>        -0.0774
     19 C17         1.0036   -0.9931   -5.7721 C.ar      1 <0>        -0.0824
     20 C18        -0.0296   -0.4198   -5.0545 C.ar      1 <0>        -0.0968
     21 C19        -0.3899    0.8936   -5.2912 C.ar      1 <0>        -0.1203
     22 C20         0.2832    1.6339   -6.2451 C.ar      1 <0>        -0.1204
     23 C21         1.3169    1.0608   -6.9620 C.ar      1 <0>        -0.1206
     24 C22         1.6800   -0.2513   -6.7223 C.ar      1 <0>        -0.1180
     25 H1          1.0053    1.8021    0.0021 H         1 <0>         0.0556
     26 H2         -0.5445    1.7859   -0.8732 H         1 <0>         0.0557
     27 H3         -0.5275    1.7763    0.9067 H         1 <0>         0.1006
     28 H4          1.1449    1.2376   -2.0086 H         1 <0>         0.1275
     29 H5          2.2128    0.1290   -3.9231 H         1 <0>         0.1281
     30 H6          0.2213   -2.5813   -0.3419 H         1 <0>         0.1289
     31 H7          2.1135   -4.4379   -1.4995 H         1 <0>         0.0841
     32 H8          0.3694   -4.5008   -1.8109 H         1 <0>         0.0848
     33 H9          1.8809   -5.7636   -3.4641 H         1 <0>         0.0866
     34 H10         0.6974   -4.6351   -4.1802 H         1 <0>         0.0865
     35 H11         3.9902   -5.5912   -4.3215 H         1 <0>         0.1418
     36 H12         5.1347   -2.1769   -3.5279 H         1 <0>         0.0996
     37 H13         5.7603   -1.7208   -5.1353 H         1 <0>         0.0935
     38 H14         3.5488   -0.6517   -4.5695 H         1 <0>         0.0880
     39 H15         3.5239   -1.6217   -6.0518 H         1 <0>         0.0799
     40 H16         1.7950   -2.8629   -6.4292 H         1 <0>         0.0782
     41 H17         0.5212   -2.9894   -5.1923 H         1 <0>         0.0794
     42 H18        -0.5554   -0.9981   -4.3093 H         1 <0>         0.1184
     43 H19        -1.1975    1.3413   -4.7311 H         1 <0>         0.1186
     44 H20         0.0012    2.6598   -6.4305 H         1 <0>         0.1197
     45 H21         1.8425    1.6391   -7.7075 H         1 <0>         0.1212
     46 H22         2.4901   -0.6978   -7.2798 H         1 <0>         0.1217
@<TRIPOS>BOND
     1    1    2 1
     2    1   25 1
     3    1   26 1
     4    1   27 1
     5    2    3 1
     6    3    8 ar
     7    3    4 ar
     8    4    5 ar
     9    4   28 1
    10    5    6 ar
    11    5   29 1
    12    6   17 1
    13    6    7 ar
    14    7    8 ar
    15    7    9 1
    16    8   30 1
    17    9   10 1
    18    9   31 1
    19    9   32 1
    20   10   11 1
    21   10   33 1
    22   10   34 1
    23   11   17 1
    24   11   12 2
    25   12   13 1
    26   12   35 1
    27   13   14 2
    28   13   15 1
    29   15   16 1
    30   15   36 1
    31   15   37 1
    32   16   17 1
    33   16   38 1
    34   16   39 1
    35   17   18 1
    36   18   19 1
    37   18   40 1
    38   18   41 1
    39   19   24 ar
    40   19   20 ar
    41   20   21 ar
    42   20   42 1
    43   21   22 ar
    44   21   43 1
    45   22   23 ar
    46   22   44 1
    47   23   24 ar
    48   23   45 1
    49   24   46 1
@<TRIPOS>MOLECULE
CHEMBL249700
   51    54     0     0     0
SMALL
USER_CHARGES

@<TRIPOS>ATOM
      1 C1         -0.0187    1.5258    0.0104 C.3       1 <0>        -0.1337
      2 C2          0.0021   -0.0041    0.0020 C.3       1 <0>        -0.0573
      3 C3         -1.4159   -0.5376    0.0738 C.3       1 <0>        -0.1029
      4 C4         -2.0777    0.0995    1.3059 C.3       1 <0>        -0.1213
      5 C5         -1.2985   -0.1988    2.5833 C.3       1 <0>        -0.0646
      6 H1         -1.3497   -1.2681    2.7883 H         1 <0>         0.0672
      7 C6          0.1748    0.2168    2.4631 C.3       1 <0>        -0.0757
      8 H2          0.2476    1.2954    2.3242 H         1 <0>         0.0874
      9 C7          0.7514   -0.5272    1.2569 C.3       1 <0>        -0.0830
     10 H3          0.6125   -1.6031    1.3627 H         1 <0>         0.0762
     11 C8          2.2067   -0.1924    0.9113 C.3       1 <0>        -0.1133
     12 C9          2.3041   -0.5737   -0.5910 C.3       1 <0>        -0.1570
     13 C10         0.8627   -0.5030   -1.1540 C.3       1 <0>         0.1102
     14 H4          0.5323   -1.4921   -1.4714 H         1 <0>         0.0563
     15 O1          0.8028    0.4147   -2.2478 O.3       1 <0>        -0.5598
     16 C11         0.9163   -0.1980    3.7373 C.3       1 <0>        -0.1116
     17 C12         0.3607    0.5939    4.9228 C.3       1 <0>        -0.0885
     18 C13        -1.1408    0.3814    4.9912 C.2       1 <0>        -0.0841
     19 C14        -1.6633    0.0515    6.1654 C.2       1 <0>        -0.1363
     20 C15        -3.1196   -0.1500    6.2934 C.2       1 <0>        -0.0904
     21 C16        -3.6438   -0.8648    7.2832 C.2       1 <0>        -0.1880
     22 C17        -3.9851    0.5039    5.2336 C.3       1 <0>        -0.0863
     23 C18        -3.3991    0.1306    3.8728 C.3       1 <0>        -0.1055
     24 C19        -1.9365    0.5640    3.7513 C.3       1 <0>        -0.0142
     25 C20        -1.9205    2.0543    3.4057 C.3       1 <0>        -0.1488
     26 H5          1.0039    1.9031    0.0027 H         1 <0>         0.0532
     27 H6         -0.5459    1.8868   -0.8726 H         1 <0>         0.0586
     28 H7         -0.5289    1.8773    0.9072 H         1 <0>         0.0613
     29 H8         -1.9632   -0.2600   -0.8270 H         1 <0>         0.0656
     30 H9         -1.3996   -1.6223    0.1802 H         1 <0>         0.0613
     31 H10        -2.1278    1.1791    1.1641 H         1 <0>         0.0737
     32 H11        -3.0901   -0.2915    1.4077 H         1 <0>         0.0631
     33 H12         2.4019    0.8706    1.0529 H         1 <0>         0.0702
     34 H13         2.8928   -0.7943    1.5072 H         1 <0>         0.0654
     35 H14         2.9458    0.1341   -1.1158 H         1 <0>         0.0721
     36 H15         2.6974   -1.5848   -0.6957 H         1 <0>         0.0662
     37 H16         1.3314    0.1496   -3.0130 H         1 <0>         0.3746
     38 H17         0.7721   -1.2642    3.9119 H         1 <0>         0.0625
     39 H18         1.9798    0.0129    3.6248 H         1 <0>         0.0660
     40 H19         0.8220    0.2421    5.8456 H         1 <0>         0.0690
     41 H20         0.5739    1.6541    4.7862 H         1 <0>         0.0734
     42 H21        -1.0233   -0.0692    7.0269 H         1 <0>         0.1150
     43 H22        -2.9995   -1.3173    8.0225 H         1 <0>         0.0989
     44 H23        -4.7141   -0.9932    7.3485 H         1 <0>         0.1005
     45 H24        -5.0078    0.1348    5.3106 H         1 <0>         0.0709
     46 H25        -3.9704    1.5866    5.3591 H         1 <0>         0.0743
     47 H26        -3.4593   -0.9502    3.7448 H         1 <0>         0.0622
     48 H27        -3.9845    0.6126    3.0898 H         1 <0>         0.0702
     49 H28        -2.4892    2.2213    2.4910 H         1 <0>         0.0629
     50 H29        -2.3694    2.6213    4.2213 H         1 <0>         0.0544
     51 H30        -0.8914    2.3822    3.2587 H         1 <0>         0.0592
@<TRIPOS>BOND
     1    1    2 1
     2    1   26 1
     3    1   27 1
     4    1   28 1
     5    2    9 1
     6    2   13 1
     7    2    3 1
     8    3    4 1
     9    3   29 1
    10    3   30 1
    11    4    5 1
    12    4   31 1
    13    4   32 1
    14    5    6 1
    15    5   24 1
    16    5    7 1
    17    7    8 1
    18    7    9 1
    19    7   16 1
    20    9   10 1
    21    9   11 1
    22   11   12 1
    23   11   33 1
    24   11   34 1
    25   12   13 1
    26   12   35 1
    27   12   36 1
    28   13   14 1
    29   13   15 1
    30   15   37 1
    31   16   17 1
    32   16   38 1
    33   16   39 1
    34   17   18 1
    35   17   40 1
    36   17   41 1
    37   18   24 1
    38   18   19 2
    39   19   20 1
    40   19   42 1
    41   20   21 2
    42   20   22 1
    43   21   43 1
    44   21   44 1
    45   22   23 1
    46   22   45 1
    47   22   46 1
    48   23   24 1
    49   23   47 1
    50   23   48 1
    51   24   25 1
    52   25   49 1
    53   25   50 1
    54   25   51 1
@<TRIPOS>MOLECULE
CHEMBL1163630
   41    43     0     0     0
SMALL
USER_CHARGES

@<TRIPOS>ATOM
      1 C1         -0.0162    1.3409    0.0094 C.2       1 <0>        -0.2126
      2 C2          1.3313    1.7689   -0.0012 C.2       1 <0>        -0.1910
      3 C3          2.0923    0.6599   -0.0144 C.2       1 <0>        -0.0437
      4 O1          1.2819   -0.4111   -0.0124 O.3       1 <0>        -0.1665
      5 C4          0.0021   -0.0041    0.0020 C.2       1 <0>        -0.0312
      6 C5          3.5989    0.6249   -0.0294 C.3       1 <0>         0.2441
      7 C6          4.0889    0.3700   -1.4562 C.3       1 <0>        -0.1776
      8 C7          5.5929    0.4570   -1.4939 C.2       1 <0>         0.3970
      9 O2          6.2118    0.6989   -0.4795 O.2       1 <0>        -0.4314
     10 C8          6.3102    0.2483   -2.7610 C.ar      1 <0>        -0.1702
     11 C9          5.5991   -0.0253   -3.9343 C.ar      1 <0>        -0.0609
     12 C10         6.2777   -0.2192   -5.1179 C.ar      1 <0>        -0.1226
     13 C11         7.6611   -0.1442   -5.1476 C.ar      1 <0>        -0.0034
     14 C12         8.3720    0.1264   -3.9894 C.ar      1 <0>        -0.1218
     15 C13         7.7063    0.3282   -2.7997 C.ar      1 <0>        -0.0454
     16 Cl1         8.5076   -0.3910   -6.6430 Cl        1 <0>        -0.0548
     17 N1          4.0712   -0.4487    0.8483 N.pl3     1 <0>        -0.7149
     18 C14         4.2237   -0.2157    2.2170 C.ar      1 <0>         0.2762
     19 C15         3.9224    1.0318    2.7485 C.ar      1 <0>        -0.1932
     20 C16         4.0739    1.2587    4.1024 C.ar      1 <0>        -0.0035
     21 C17         4.5249    0.2457    4.9286 C.ar      1 <0>        -0.1105
     22 C18         4.8257   -0.9974    4.4027 C.ar      1 <0>        -0.0047
     23 C19         4.6715   -1.2327    3.0506 C.ar      1 <0>        -0.1916
     24 N2          4.6864    0.4926    6.3789 N.pl3     1 <0>         0.0451
     25 O3          4.4242    1.5790    6.8400 O.2       1 <0>        -0.1735
     26 O4          5.0806   -0.3921    7.1025 O.3       1 <0>        -0.1736
     27 H1         -0.8920    1.9726    0.0252 H         1 <0>         0.1513
     28 H2          1.6822    2.7903    0.0004 H         1 <0>         0.1507
     29 H3         -0.8653   -0.6475    0.0072 H         1 <0>         0.2044
     30 H4          3.9880    1.5801    0.3232 H         1 <0>         0.1213
     31 H5          3.7742   -0.6232   -1.7764 H         1 <0>         0.1145
     32 H6          3.6648    1.1188   -2.1252 H         1 <0>         0.1255
     33 H7          4.5209   -0.0847   -3.9124 H         1 <0>         0.1422
     34 H8          5.7301   -0.4305   -6.0245 H         1 <0>         0.1428
     35 H9          9.4500    0.1830   -4.0199 H         1 <0>         0.1427
     36 H10         8.2614    0.5431   -1.8985 H         1 <0>         0.1446
     37 H11         4.2781   -1.3215    0.4789 H         1 <0>         0.4082
     38 H12         3.5705    1.8235    2.1037 H         1 <0>         0.1410
     39 H13         3.8402    2.2285    4.5162 H         1 <0>         0.1514
     40 H14         5.1780   -1.7863    5.0507 H         1 <0>         0.1521
     41 H15         4.9026   -2.2049    2.6412 H         1 <0>         0.1433
@<TRIPOS>BOND
     1    1    5 2
     2    1    2 1
     3    1   27 1
     4    2    3 2
     5    2   28 1
     6    3    4 1
     7    3    6 1
     8    4    5 1
     9    5   29 1
    10    6    7 1
    11    6   17 1
    12    6   30 1
    13    7    8 1
    14    7   31 1
    15    7   32 1
    16    8    9 2
    17    8   10 1
    18   10   15 ar
    19   10   11 ar
    20   11   12 ar
    21   11   33 1
    22   12   13 ar
    23   12   34 1
    24   13   14 ar
    25   13   16 1
    26   14   15 ar
    27   14   35 1
    28   15   36 1
    29   17   18 1
    30   17   37 1
    31   18   23 ar
    32   18   19 ar
    33   19   20 ar
    34   19   38 1
    35   20   21 ar
    36   20   39 1
    37   21   22 ar
    38   21   24 1
    39   22   23 ar
    40   22   40 1
    41   23   41 1
    42   24   25 2
    43   24   26 1
@<TRIPOS>MOLECULE
CHEMBL1163630__1
   41    43     0     0     0
SMALL
USER_CHARGES

@<TRIPOS>ATOM
      1 C1         -0.0162    1.3409    0.0094 C.2       1 <0>        -0.2126
      2 C2          1.3313    1.7689   -0.0012 C.2       1 <0>        -0.1910
      3 C3          2.0923    0.6599   -0.0144 C.2       1 <0>        -0.0437
      4 O1          1.2819   -0.4111   -0.0124 O.3       1 <0>        -0.1665
      5 C4          0.0021   -0.0041    0.0020 C.2       1 <0>        -0.0312
      6 C5          3.5989    0.6249   -0.0294 C.3       1 <0>         0.2440
      7 C6          4.1169    0.3554    1.3848 C.3       1 <0>        -0.1776
      8 C7          5.6214    0.4420    1.3937 C.2       1 <0>         0.3970
      9 O2          6.2202    0.6945    0.3699 O.2       1 <0>        -0.4314
     10 C8          6.3634    0.2204    2.6442 C.ar      1 <0>        -0.1702
     11 C9          5.6762   -0.0768    3.8260 C.ar      1 <0>        -0.0608
     12 C10         6.3781   -0.2837    4.9938 C.ar      1 <0>        -0.1227
     13 C11         7.7611   -0.1976    4.9994 C.ar      1 <0>        -0.0034
     14 C12         8.4484    0.0964    3.8327 C.ar      1 <0>        -0.1218
     15 C13         7.7601    0.3001    2.6562 C.ar      1 <0>        -0.0454
     16 Cl1         8.6368   -0.4586    6.4754 Cl        1 <0>        -0.0548
     17 N1          4.0537   -0.4396   -0.9273 N.pl3     1 <0>        -0.7148
     18 C14         4.1792   -0.1924   -2.2962 C.ar      1 <0>         0.2762
     19 C15         3.8787    1.0639   -2.8072 C.ar      1 <0>        -0.1931
     20 C16         4.0044    1.3050   -4.1612 C.ar      1 <0>        -0.0036
     21 C17         4.4288    0.2975   -5.0080 C.ar      1 <0>        -0.1105
     22 C18         4.7288   -0.9542   -4.5027 C.ar      1 <0>        -0.0047
     23 C19         4.6104   -1.2006   -3.1490 C.ar      1 <0>        -0.1916
     24 N2          4.5618    0.5595   -6.4586 N.pl3     1 <0>         0.0450
     25 O3          4.2995    1.6532   -6.9020 O.2       1 <0>        -0.1734
     26 O4          4.9328   -0.3204   -7.2002 O.3       1 <0>        -0.1737
     27 H1         -0.8920    1.9726    0.0252 H         1 <0>         0.1513
     28 H2          1.6822    2.7903    0.0004 H         1 <0>         0.1507
     29 H3         -0.8653   -0.6475    0.0072 H         1 <0>         0.2044
     30 H4          3.9810    1.5837   -0.3797 H         1 <0>         0.1213
     31 H5          3.7061    1.0972    2.0697 H         1 <0>         0.1256
     32 H6          3.8085   -0.6412    1.7009 H         1 <0>         0.1145
     33 H7          4.5983   -0.1436    3.8232 H         1 <0>         0.1422
     34 H8          5.8489   -0.5133    5.9069 H         1 <0>         0.1428
     35 H9          9.5263    0.1623    3.8445 H         1 <0>         0.1427
     36 H10         8.2973    0.5251    1.7467 H         1 <0>         0.1447
     37 H11         4.2677   -1.3161   -0.5710 H         1 <0>         0.4082
     38 H12         3.5468    1.8510   -2.1464 H         1 <0>         0.1410
     39 H13         3.7705    2.2814   -4.5592 H         1 <0>         0.1514
     40 H14         5.0597   -1.7389   -5.1669 H         1 <0>         0.1521
     41 H15         4.8488   -2.1773   -2.7543 H         1 <0>         0.1433
@<TRIPOS>BOND
     1    1    5 2
     2    1    2 1
     3    1   27 1
     4    2    3 2
     5    2   28 1
     6    3    4 1
     7    3    6 1
     8    4    5 1
     9    5   29 1
    10    6    7 1
    11    6   17 1
    12    6   30 1
    13    7    8 1
    14    7   31 1
    15    7   32 1
    16    8    9 2
    17    8   10 1
    18   10   15 ar
    19   10   11 ar
    20   11   12 ar
    21   11   33 1
    22   12   13 ar
    23   12   34 1
    24   13   14 ar
    25   13   16 1
    26   14   15 ar
    27   14   35 1
    28   15   36 1
    29   17   18 1
    30   17   37 1
    31   18   23 ar
    32   18   19 ar
    33   19   20 ar
    34   19   38 1
    35   20   21 ar
    36   20   39 1
    37   21   22 ar
    38   21   24 1
    39   22   23 ar
    40   22   40 1
    41   23   41 1
    42   24   25 2
    43   24   26 1
@<TRIPOS>MOLECULE
CHEMBL350932
   37    40     0     0     0
SMALL
USER_CHARGES

@<TRIPOS>ATOM
      1 C1         -0.0164    1.3560    0.0095 C.ar      1 <0>        -0.0050
      2 C2          1.1904    2.0698    0.0018 C.ar      1 <0>        -0.1648
      3 C3          1.1977    3.4878    0.0117 C.2       1 <0>        -0.0579
      4 C4          2.3852    4.1431    0.0127 C.2       1 <0>        -0.1702
      5 C5          3.5960    3.4206    0.0046 C.2       1 <0>         0.5408
      6 N1          3.6011    2.0746   -0.0078 N.am      1 <0>        -0.6232
      7 C6          2.4136    1.3709   -0.0139 C.ar      1 <0>         0.2454
      8 C7          2.4119   -0.0159   -0.0402 C.ar      1 <0>        -0.2322
      9 C8          1.2071   -0.7100   -0.0444 C.ar      1 <0>         0.2600
     10 C9          0.0021   -0.0041    0.0020 C.ar      1 <0>        -0.1717
     11 C10        -1.1317   -1.0199    0.0773 C.3       1 <0>        -0.0449
     12 H1         -1.8425   -0.7685    0.8645 H         1 <0>         0.1013
     13 C11        -1.8069   -1.0457   -1.2942 C.3       1 <0>        -0.1085
     14 C12        -2.6801   -2.2934   -1.4199 C.3       1 <0>        -0.1216
     15 C13        -1.7726   -3.5218   -1.3971 C.3       1 <0>        -0.1164
     16 C14        -1.0080   -3.5941   -0.0910 C.3       1 <0>        -0.1184
     17 C15        -0.3889   -2.3145    0.3904 C.3       1 <0>         0.1552
     18 H2         -0.3014   -2.3693    1.4755 H         1 <0>         0.0621
     19 N2          0.9700   -2.0885   -0.1099 N.pl3     1 <0>        -0.7313
     20 O1          4.6550    4.0245    0.0084 O.2       1 <0>        -0.5237
     21 C16        -0.0981    4.2572    0.0204 C.3       1 <0>         0.5059
     22 F1          0.1744    5.6293    0.0293 F         1 <0>        -0.1683
     23 F2         -0.8387    3.9362   -1.1222 F         1 <0>        -0.1674
     24 F3         -0.8328    3.9202    1.1623 F         1 <0>        -0.1676
     25 H3         -0.9580    1.8847    0.0258 H         1 <0>         0.1347
     26 H4          2.4034    5.2229    0.0195 H         1 <0>         0.1686
     27 H5          3.3466   -0.5567   -0.0578 H         1 <0>         0.1357
     28 H6         -2.4269   -0.1566   -1.4094 H         1 <0>         0.0692
     29 H7         -1.0444   -1.0574   -2.0731 H         1 <0>         0.0658
     30 H8         -3.3790   -2.3379   -0.5845 H         1 <0>         0.0668
     31 H9         -3.2319   -2.2621   -2.3593 H         1 <0>         0.0678
     32 H10        -2.3802   -4.4199   -1.5083 H         1 <0>         0.0681
     33 H11        -1.0657   -3.4620   -2.2247 H         1 <0>         0.0610
     34 H12        -1.6910   -3.9396    0.6851 H         1 <0>         0.0761
     35 H13        -0.2186   -4.3380   -0.1989 H         1 <0>         0.0695
     36 H14         1.5883   -2.7657   -0.4260 H         1 <0>         0.4186
     37 H15         4.4448    1.5960   -0.0126 H         1 <0>         0.4206
@<TRIPOS>BOND
     1    1   10 ar
     2    1    2 ar
     3    1   25 1
     4    2    7 ar
     5    2    3 1
     6    3    4 2
     7    3   21 1
     8    4    5 1
     9    4   26 1
    10    5    6 am
    11    5   20 2
    12    6    7 1
    13    6   37 1
    14    7    8 ar
    15    8    9 ar
    16    8   27 1
    17    9   19 1
    18    9   10 ar
    19   10   11 1
    20   11   12 1
    21   11   17 1
    22   11   13 1
    23   13   14 1
    24   13   28 1
    25   13   29 1
    26   14   15 1
    27   14   30 1
    28   14   31 1
    29   15   16 1
    30   15   32 1
    31   15   33 1
    32   16   17 1
    33   16   34 1
    34   16   35 1
    35   17   18 1
    36   17   19 1
    37   19   36 1
    38   21   22 1
    39   21   23 1
    40   21   24 1
@<TRIPOS>MOLECULE
CHEMBL467790
   26    27     0     0     0
SMALL
USER_CHARGES

@<TRIPOS>ATOM
      1 C1         -0.0157    1.3058    0.0092 C.2       1 <0>        -0.1243
      2 C2          0.0021   -0.0041    0.0020 C.2       1 <0>        -0.2209
      3 C3         -1.2926   -0.7753    0.0102 C.3       1 <0>         0.2077
      4 C4         -1.3724   -1.6360   -1.2242 C.2       1 <0>         0.2578
      5 N1         -1.3432   -1.1705   -2.5022 N.pl3     1 <0>        -0.5786
      6 H1         -1.2685   -0.2425   -2.7745 H         1 <0>         0.4284
      7 C5         -1.4389   -2.2644   -3.3401 C.ar      1 <0>         0.0723
      8 C6         -1.4621   -2.4245   -4.7188 C.ar      1 <0>        -0.0882
      9 C7         -1.5701   -3.6880   -5.2610 C.ar      1 <0>        -0.0076
     10 C8         -1.6563   -4.8031   -4.4356 C.ar      1 <0>        -0.0394
     11 C9         -1.6347   -4.6619   -3.0664 C.ar      1 <0>        -0.0310
     12 C10        -1.5253   -3.3882   -2.5016 C.ar      1 <0>         0.0631
     13 N2         -1.4737   -2.9331   -1.2230 N.2       1 <0>        -0.4474
     14 Cl1        -1.7928   -6.3854   -5.1366 Cl        1 <0>        -0.0340
     15 Cl2        -1.5990   -3.8870   -6.9853 Cl        1 <0>        -0.0318
     16 C11        -1.3498   -1.6626    1.2553 C.3       1 <0>         0.4938
     17 F1         -1.2757   -0.8635    2.4013 F         1 <0>        -0.1670
     18 F2         -2.5517   -2.3785    1.2630 F         1 <0>        -0.1588
     19 F3         -0.2743   -2.5571    1.2403 F         1 <0>        -0.1580
     20 O1         -2.3912    0.1385    0.0256 O.3       1 <0>        -0.5148
     21 H2          0.9122    1.8585    0.0033 H         1 <0>         0.1240
     22 H3         -0.9582    1.8330    0.0166 H         1 <0>         0.1137
     23 H4          0.9446   -0.5313   -0.0098 H         1 <0>         0.1414
     24 H5         -1.3962   -1.5619   -5.3652 H         1 <0>         0.1482
     25 H6         -1.7024   -5.5325   -2.4308 H         1 <0>         0.1563
     26 H7         -2.4185    0.7337   -0.7360 H         1 <0>         0.3951
@<TRIPOS>BOND
     1    1    2 2
     2    1   21 1
     3    1   22 1
     4    2    3 1
     5    2   23 1
     6    3    4 1
     7    3   16 1
     8    3   20 1
     9    4   13 2
    10    4    5 1
    11    5    6 1
    12    5    7 1
    13    7   12 ar
    14    7    8 ar
    15    8    9 ar
    16    8   24 1
    17    9   10 ar
    18    9   15 1
    19   10   11 ar
    20   10   14 1
    21   11   12 ar
    22   11   25 1
    23   12   13 1
    24   16   17 1
    25   16   18 1
    26   16   19 1
    27   20   26 1
@<TRIPOS>MOLECULE
CHEMBL295204
   60    64     0     0     0
SMALL
USER_CHARGES

@<TRIPOS>ATOM
      1 C1         -0.0187    1.5305    0.0105 C.3       1 <0>        -0.1360
      2 C2          0.0021   -0.0041    0.0020 C.3       1 <0>        -0.0260
      3 C3         -1.3941   -0.5572    0.0373 C.3       1 <0>        -0.1000
      4 C4         -2.0192   -0.4196    1.4320 C.3       1 <0>        -0.1114
      5 C5         -1.1292    0.2655    2.4496 C.3       1 <0>        -0.0691
      6 C6          0.2709   -0.3168    2.5246 C.3       1 <0>        -0.0570
      7 C7          0.8345   -0.5934    1.1527 C.3       1 <0>        -0.0832
      8 C8          2.2305   -0.0322    0.8471 C.3       1 <0>        -0.1137
      9 C9          2.3285   -0.2072   -0.6943 C.3       1 <0>        -0.1460
     10 C10         0.8751   -0.3900   -1.2095 C.3       1 <0>         0.2398
     11 C11         0.6563   -1.7734   -1.6352 C.1       1 <0>        -0.2078
     12 C12         0.4808   -2.8829   -1.9765 C.1       1 <0>        -0.1781
     13 O1          0.6206    0.5152   -2.2853 O.3       1 <0>        -0.5406
     14 C13         0.2421   -1.6591    3.2771 C.3       1 <0>        -0.1151
     15 C14        -0.3177   -1.4589    4.6793 C.3       1 <0>        -0.1131
     16 C15        -1.7632   -0.9593    4.5810 C.3       1 <0>        -0.0720
     17 H1         -2.3591   -1.7079    4.0459 H         1 <0>         0.0771
     18 C16        -1.8103    0.3575    3.8173 C.3       1 <0>        -0.0363
     19 C17        -3.2922    0.7285    3.5820 C.3       1 <0>        -0.0442
     20 C18        -3.9827    0.6825    4.9017 C.2       1 <0>        -0.1596
     21 C19        -3.5869    0.0026    6.0100 C.2       1 <0>         0.0444
     22 N1         -4.3985    0.1296    7.0549 N.2       1 <0>        -0.3972
     23 C20        -5.4839    0.8592    7.0114 C.2       1 <0>        -0.5385
     24 S1         -5.4774    1.4634    5.4376 S.3       1 <0>         0.2382
     25 S2         -6.6657    1.1427    8.2874 S.o2      1 <0>         2.5295
     26 O2         -7.8741    1.4422    7.6024 O.2       1 <0>        -0.9196
     27 O3         -6.5732    0.0004    9.1275 O.2       1 <0>        -0.9080
     28 C21        -6.0629    2.6126    9.1629 C.3       1 <0>        -0.6414
     29 C22        -2.3080   -0.8152    6.0047 C.3       1 <0>        -0.0366
     30 C23        -1.1443    1.4769    4.6244 C.3       1 <0>        -0.1478
     31 H2          0.9672    1.9087   -0.2597 H         1 <0>         0.0599
     32 H3         -0.7548    1.8878   -0.7097 H         1 <0>         0.0610
     33 H4         -0.2834    1.8848    1.0067 H         1 <0>         0.0623
     34 H5         -2.0213   -0.0190   -0.6912 H         1 <0>         0.0632
     35 H6         -1.4153   -1.6181   -0.2417 H         1 <0>         0.0614
     36 H7         -2.9550    0.1517    1.3276 H         1 <0>         0.0639
     37 H8         -2.2928   -1.4174    1.7998 H         1 <0>         0.0604
     38 H9         -1.0371    1.3267    2.1610 H         1 <0>         0.0774
     39 H10         0.9366    0.3709    3.0635 H         1 <0>         0.0765
     40 H11         0.8885   -1.6981    1.0336 H         1 <0>         0.0728
     41 H12         2.3219    1.0090    1.1366 H         1 <0>         0.0756
     42 H13         2.9972   -0.6318    1.3441 H         1 <0>         0.0668
     43 H14         2.7737    0.6789   -1.1439 H         1 <0>         0.0816
     44 H15         2.9198   -1.0902   -0.9323 H         1 <0>         0.0701
     45 H16         0.3238   -3.8752   -2.2819 H         1 <0>         0.2185
     46 H17         1.1361    0.3331   -3.0829 H         1 <0>         0.3772
     47 H18        -0.3851   -2.3627    2.7286 H         1 <0>         0.0637
     48 H19         1.2571   -2.0535    3.3403 H         1 <0>         0.0634
     49 H20        -0.3074   -2.4146    5.2096 H         1 <0>         0.0649
     50 H21         0.2936   -0.7464    5.2257 H         1 <0>         0.0687
     51 H22        -3.3583    1.7291    3.1648 H         1 <0>         0.0927
     52 H23        -3.7551    0.0036    2.9166 H         1 <0>         0.1027
     53 H24        -6.0090    3.4519    8.4695 H         1 <0>         0.1337
     54 H25        -6.7461    2.8566    9.9764 H         1 <0>         0.1419
     55 H26        -5.0713    2.4125    9.5689 H         1 <0>         0.1371
     56 H27        -2.5252   -1.8115    6.4060 H         1 <0>         0.0845
     57 H28        -1.5654   -0.3429    6.6469 H         1 <0>         0.0871
     58 H29        -1.2528    2.4222    4.0927 H         1 <0>         0.0581
     59 H30        -1.6207    1.5529    5.6018 H         1 <0>         0.0569
     60 H31        -0.0855    1.2517    4.7528 H         1 <0>         0.0652
@<TRIPOS>BOND
     1    1    2 1
     2    1   31 1
     3    1   32 1
     4    1   33 1
     5    2    7 1
     6    2   10 1
     7    2    3 1
     8    3    4 1
     9    3   34 1
    10    3   35 1
    11    4    5 1
    12    4   36 1
    13    4   37 1
    14    5   18 1
    15    5    6 1
    16    5   38 1
    17    6    7 1
    18    6   14 1
    19    6   39 1
    20    7    8 1
    21    7   40 1
    22    8    9 1
    23    8   41 1
    24    8   42 1
    25    9   10 1
    26    9   43 1
    27    9   44 1
    28   10   11 1
    29   10   13 1
    30   11   12 3
    31   12   45 1
    32   13   46 1
    33   14   15 1
    34   14   47 1
    35   14   48 1
    36   15   16 1
    37   15   49 1
    38   15   50 1
    39   16   17 1
    40   16   29 1
    41   16   18 1
    42   18   19 1
    43   18   30 1
    44   19   20 1
    45   19   51 1
    46   19   52 1
    47   20   24 1
    48   20   21 2
    49   21   22 1
    50   21   29 1
    51   22   23 2
    52   23   24 1
    53   23   25 1
    54   25   26 2
    55   25   27 2
    56   25   28 1
    57   28   53 1
    58   28   54 1
    59   28   55 1
    60   29   56 1
    61   29   57 1
    62   30   58 1
    63   30   59 1
    64   30   60 1
@<TRIPOS>MOLECULE
CHEMBL295204__1
   60    64     0     0     0
SMALL
USER_CHARGES

@<TRIPOS>ATOM
      1 C1         -0.0190    1.5510    0.0106 C.3       1 <0>        -0.1332
      2 C2          0.0021   -0.0041    0.0020 C.3       1 <0>        -0.0304
      3 C3         -1.4427   -0.4233   -0.0483 C.3       1 <0>        -0.1010
      4 C4         -1.7046   -1.8307    0.4800 C.3       1 <0>        -0.1207
      5 C5         -1.1800   -1.8984    1.9177 C.3       1 <0>        -0.0658
      6 C6          0.3370   -1.7513    1.8676 C.3       1 <0>        -0.0688
      7 C7          0.7562   -0.4192    1.2682 C.3       1 <0>        -0.0690
      8 C8          2.2355   -0.5234    0.8162 C.3       1 <0>        -0.1185
      9 C9          2.1670   -0.9771   -0.6537 C.3       1 <0>        -0.1463
     10 C10         0.8477   -0.3994   -1.2076 C.3       1 <0>         0.2537
     11 C11         0.1939   -1.3809   -2.0810 C.1       1 <0>        -0.2024
     12 C12        -0.3291   -2.1662   -2.7797 C.1       1 <0>        -0.1816
     13 O1          1.1467    0.7794   -1.9772 O.3       1 <0>        -0.5467
     14 C13         0.9458   -2.9315    1.1150 C.3       1 <0>        -0.1204
     15 C14         0.5874   -4.2252    1.8492 C.3       1 <0>        -0.1157
     16 C15        -0.9318   -4.4023    1.8994 C.3       1 <0>        -0.0714
     17 H1         -1.3139   -4.4820    0.8750 H         1 <0>         0.0765
     18 C16        -1.5962   -3.2097    2.5851 C.3       1 <0>        -0.0324
     19 C17        -3.1275   -3.3512    2.4436 C.3       1 <0>        -0.0446
     20 C18        -3.5143   -4.7325    2.8468 C.2       1 <0>        -0.1577
     21 C19        -2.7090   -5.8235    2.9364 C.2       1 <0>         0.0431
     22 N1         -3.3293   -6.9436    3.2919 N.2       1 <0>        -0.3962
     23 C20        -4.6131   -6.9802    3.5414 C.2       1 <0>        -0.5386
     24 S1         -5.0936   -5.3804    3.3167 S.3       1 <0>         0.2360
     25 S2         -5.6008   -8.3662    3.9971 S.o2      1 <0>         2.5295
     26 O2         -6.9111   -8.0385    3.5557 O.2       1 <0>        -0.9195
     27 O3         -4.9163   -9.4908    3.4622 O.2       1 <0>        -0.9080
     28 C21        -5.5432   -8.4038    5.8098 C.3       1 <0>        -0.6414
     29 C22        -1.2243   -5.7116    2.6398 C.3       1 <0>        -0.0371
     30 C23        -1.2388   -3.1688    4.0753 C.3       1 <0>        -0.1463
     31 H2          1.0036    1.9283    0.0028 H         1 <0>         0.0615
     32 H3         -0.5462    1.9121   -0.8725 H         1 <0>         0.0590
     33 H4         -0.5292    1.9025    0.9074 H         1 <0>         0.0486
     34 H5         -2.0109    0.2767    0.5922 H         1 <0>         0.0601
     35 H6         -1.8533   -0.3137   -1.0474 H         1 <0>         0.0652
     36 H7         -2.7839   -2.0027    0.4669 H         1 <0>         0.0634
     37 H8         -1.2176   -2.5776   -0.1361 H         1 <0>         0.0732
     38 H9         -1.5972   -1.0604    2.4872 H         1 <0>         0.0746
     39 H10         0.7181   -1.7813    2.9033 H         1 <0>         0.0699
     40 H11         0.6550    0.3791    2.0377 H         1 <0>         0.0816
     41 H12         2.7272    0.4524    0.8880 H         1 <0>         0.0675
     42 H13         2.7834   -1.2443    1.4234 H         1 <0>         0.0752
     43 H14         3.0113   -0.5703   -1.2131 H         1 <0>         0.0736
     44 H15         2.1641   -2.0620   -0.7274 H         1 <0>         0.0810
     45 H16        -0.7969   -2.8684   -3.4046 H         1 <0>         0.2167
     46 H17         1.6823    0.6099   -2.7643 H         1 <0>         0.3743
     47 H18         0.5597   -2.9798    0.1004 H         1 <0>         0.0703
     48 H19         2.0330   -2.8405    1.0877 H         1 <0>         0.0699
     49 H20         1.0274   -5.0685    1.3110 H         1 <0>         0.0636
     50 H21         0.9978   -4.1976    2.8554 H         1 <0>         0.0668
     51 H22        -3.6207   -2.6307    3.0940 H         1 <0>         0.0921
     52 H23        -3.4309   -3.1957    1.4126 H         1 <0>         0.1022
     53 H24        -5.9483   -7.4725    6.2056 H         1 <0>         0.1336
     54 H25        -6.1365   -9.2422    6.1748 H         1 <0>         0.1419
     55 H26        -4.5103   -8.5194    6.1382 H         1 <0>         0.1371
     56 H27        -0.9261   -6.5533    2.0060 H         1 <0>         0.0842
     57 H28        -0.6561   -5.7598    3.5660 H         1 <0>         0.0875
     58 H29        -1.7619   -2.3396    4.5517 H         1 <0>         0.0582
     59 H30        -1.5373   -4.1054    4.5463 H         1 <0>         0.0565
     60 H31        -0.1632   -3.0324    4.1874 H         1 <0>         0.0653
@<TRIPOS>BOND
     1    1    2 1
     2    1   31 1
     3    1   32 1
     4    1   33 1
     5    2    7 1
     6    2   10 1
     7    2    3 1
     8    3    4 1
     9    3   34 1
    10    3   35 1
    11    4    5 1
    12    4   36 1
    13    4   37 1
    14    5   18 1
    15    5    6 1
    16    5   38 1
    17    6    7 1
    18    6   14 1
    19    6   39 1
    20    7    8 1
    21    7   40 1
    22    8    9 1
    23    8   41 1
    24    8   42 1
    25    9   10 1
    26    9   43 1
    27    9   44 1
    28   10   11 1
    29   10   13 1
    30   11   12 3
    31   12   45 1
    32   13   46 1
    33   14   15 1
    34   14   47 1
    35   14   48 1
    36   15   16 1
    37   15   49 1
    38   15   50 1
    39   16   17 1
    40   16   29 1
    41   16   18 1
    42   18   19 1
    43   18   30 1
    44   19   20 1
    45   19   51 1
    46   19   52 1
    47   20   24 1
    48   20   21 2
    49   21   22 1
    50   21   29 1
    51   22   23 2
    52   23   24 1
    53   23   25 1
    54   25   26 2
    55   25   27 2
    56   25   28 1
    57   28   53 1
    58   28   54 1
    59   28   55 1
    60   29   56 1
    61   29   57 1
    62   30   58 1
    63   30   59 1
    64   30   60 1
@<TRIPOS>MOLECULE
CHEMBL295204__2
   60    64     0     0     0
SMALL
USER_CHARGES

@<TRIPOS>ATOM
      1 C1         -0.0187    1.5305    0.0105 C.3       1 <0>        -0.1359
      2 C2          0.0021   -0.0041    0.0020 C.3       1 <0>        -0.0255
      3 C3         -1.3957   -0.5508    0.0447 C.3       1 <0>        -0.1016
      4 C4         -2.0046   -0.4536    1.4505 C.3       1 <0>        -0.1116
      5 C5         -1.1347    0.2838    2.4476 C.3       1 <0>        -0.0718
      6 C6          0.2849   -0.2766    2.5168 C.3       1 <0>        -0.0661
      7 C7          0.8393   -0.5830    1.1596 C.3       1 <0>        -0.0763
      8 C8          2.2393   -0.0480    0.8331 C.3       1 <0>        -0.1123
      9 C9          2.3250   -0.2348   -0.7076 C.3       1 <0>        -0.1469
     10 C10         0.8658   -0.3965   -1.2111 C.3       1 <0>         0.2412
     11 C11         0.6284   -1.7781   -1.6401 C.1       1 <0>        -0.2083
     12 C12         0.4383   -2.8845   -1.9837 C.1       1 <0>        -0.1791
     13 O1          0.6170    0.5096   -2.2887 O.3       1 <0>        -0.5412
     14 C13         1.1587    0.6899    3.3135 C.3       1 <0>        -0.1111
     15 C14         0.5486    0.8727    4.7042 C.3       1 <0>        -0.1146
     16 C15        -0.6630   -0.0398    4.8894 C.3       1 <0>        -0.0741
     17 H1         -0.3415   -1.0834    4.7709 H         1 <0>         0.0790
     18 C16        -1.7466    0.2648    3.8529 C.3       1 <0>        -0.0408
     19 C17        -2.8056   -0.8534    3.9307 C.3       1 <0>        -0.0381
     20 C18        -3.2462   -0.9373    5.3524 C.2       1 <0>        -0.1610
     21 C19        -2.5628   -0.5126    6.4508 C.2       1 <0>         0.0450
     22 N1         -3.1955   -0.7065    7.6020 N.2       1 <0>        -0.3981
     23 C20        -4.3825   -1.2522    7.6661 C.2       1 <0>        -0.5375
     24 S1         -4.7389   -1.5821    6.0510 S.3       1 <0>         0.2367
     25 S2         -5.3720   -1.5625    9.0909 S.o2      1 <0>         2.5294
     26 O2         -6.2022   -2.6561    8.7247 O.2       1 <0>        -0.9197
     27 O3         -4.4422   -1.6845   10.1585 O.2       1 <0>        -0.9079
     28 C21        -6.3707   -0.0627    9.3004 C.3       1 <0>        -0.6413
     29 C22        -1.1964    0.1379    6.3145 C.3       1 <0>        -0.0369
     30 C23        -2.4051    1.6178    4.1321 C.3       1 <0>        -0.1452
     31 H2          0.9719    1.9087   -0.2419 H         1 <0>         0.0591
     32 H3         -0.7418    1.8881   -0.7227 H         1 <0>         0.0605
     33 H4         -0.3011    1.8846    1.0019 H         1 <0>         0.0631
     34 H5         -2.0297    0.0079   -0.6602 H         1 <0>         0.0632
     35 H6         -1.4292   -1.6048   -0.2603 H         1 <0>         0.0615
     36 H7         -2.9808    0.0456    1.3799 H         1 <0>         0.0635
     37 H8         -2.1905   -1.4750    1.8126 H         1 <0>         0.0620
     38 H9         -1.0906    1.3463    2.1787 H         1 <0>         0.0858
     39 H10         0.2439   -1.2270    3.0827 H         1 <0>         0.0696
     40 H11         0.8754   -1.6889    1.0547 H         1 <0>         0.0678
     41 H12         2.3565    0.9937    1.1114 H         1 <0>         0.0784
     42 H13         3.0010   -0.6576    1.3281 H         1 <0>         0.0663
     43 H14         2.7830    0.6380   -1.1674 H         1 <0>         0.0816
     44 H15         2.8992   -1.1301   -0.9435 H         1 <0>         0.0698
     45 H16         0.2683   -3.8740   -2.2910 H         1 <0>         0.2184
     46 H17         1.1289    0.3212   -3.0872 H         1 <0>         0.3773
     47 H18         2.1623    0.2790    3.4100 H         1 <0>         0.0664
     48 H19         1.2024    1.6531    2.8079 H         1 <0>         0.0672
     49 H20         1.3045    0.6199    5.4543 H         1 <0>         0.0651
     50 H21         0.2567    1.9137    4.8396 H         1 <0>         0.0670
     51 H22        -3.6545   -0.6103    3.2970 H         1 <0>         0.0948
     52 H23        -2.3645   -1.8042    3.6335 H         1 <0>         0.0991
     53 H24        -6.9818    0.0941    8.4115 H         1 <0>         0.1337
     54 H25        -7.0174   -0.1754   10.1706 H         1 <0>         0.1420
     55 H26        -5.7131    0.7945    9.4451 H         1 <0>         0.1370
     56 H27        -0.5049   -0.3446    7.0154 H         1 <0>         0.0843
     57 H28        -1.2612    1.1935    6.5668 H         1 <0>         0.0873
     58 H29        -3.1868    1.8004    3.3948 H         1 <0>         0.0589
     59 H30        -2.8422    1.6100    5.1306 H         1 <0>         0.0564
     60 H31        -1.6554    2.4065    4.0698 H         1 <0>         0.0643
@<TRIPOS>BOND
     1    1    2 1
     2    1   31 1
     3    1   32 1
     4    1   33 1
     5    2    7 1
     6    2   10 1
     7    2    3 1
     8    3    4 1
     9    3   34 1
    10    3   35 1
    11    4    5 1
    12    4   36 1
    13    4   37 1
    14    5   18 1
    15    5    6 1
    16    5   38 1
    17    6    7 1
    18    6   14 1
    19    6   39 1
    20    7    8 1
    21    7   40 1
    22    8    9 1
    23    8   41 1
    24    8   42 1
    25    9   10 1
    26    9   43 1
    27    9   44 1
    28   10   11 1
    29   10   13 1
    30   11   12 3
    31   12   45 1
    32   13   46 1
    33   14   15 1
    34   14   47 1
    35   14   48 1
    36   15   16 1
    37   15   49 1
    38   15   50 1
    39   16   17 1
    40   16   29 1
    41   16   18 1
    42   18   19 1
    43   18   30 1
    44   19   20 1
    45   19   51 1
    46   19   52 1
    47   20   24 1
    48   20   21 2
    49   21   22 1
    50   21   29 1
    51   22   23 2
    52   23   24 1
    53   23   25 1
    54   25   26 2
    55   25   27 2
    56   25   28 1
    57   28   53 1
    58   28   54 1
    59   28   55 1
    60   29   56 1
    61   29   57 1
    62   30   58 1
    63   30   59 1
    64   30   60 1
@<TRIPOS>MOLECULE
CHEMBL295204__3
   60    64     0     0     0
SMALL
USER_CHARGES

@<TRIPOS>ATOM
      1 C1         -0.0187    1.5258    0.0104 C.3       1 <0>        -0.1353
      2 C2          0.0021   -0.0041    0.0020 C.3       1 <0>        -0.0322
      3 C3         -1.4133   -0.5204   -0.0992 C.3       1 <0>        -0.1027
      4 C4         -1.4563   -2.0417    0.0318 C.3       1 <0>        -0.1874
      5 C5         -0.8693   -2.4294    1.3957 C.3       1 <0>        -0.0633
      6 C6          0.5951   -2.0062    1.4380 C.3       1 <0>        -0.0818
      7 C7          0.7467   -0.5062    1.2496 C.3       1 <0>        -0.0752
      8 C8          2.2363   -0.2546    0.8918 C.3       1 <0>        -0.1212
      9 C9          2.3210   -0.2737   -0.6459 C.3       1 <0>        -0.1457
     10 C10         0.8809   -0.4918   -1.1646 C.3       1 <0>         0.2417
     11 C11         0.6379   -1.9181   -1.4356 C.1       1 <0>        -0.1625
     12 C12         0.4441   -3.0556   -1.6518 C.1       1 <0>        -0.1969
     13 O1          0.6435    0.2920   -2.3355 O.3       1 <0>        -0.5375
     14 C13         1.1932   -2.3936    2.7940 C.3       1 <0>        -0.1160
     15 C14         1.0502   -3.8955    3.0128 C.3       1 <0>        -0.1151
     16 C15         0.4028   -4.5571    1.7919 C.3       1 <0>        -0.0736
     17 H1          1.0346   -4.4076    0.9163 H         1 <0>         0.0800
     18 C16        -0.9818   -3.9524    1.5501 C.3       1 <0>        -0.0370
     19 C17        -1.5444   -4.5025    0.2244 C.3       1 <0>        -0.0576
     20 C18        -1.3450   -5.9764    0.1926 C.2       1 <0>        -0.1590
     21 C19        -0.5437   -6.7215    0.9990 C.2       1 <0>         0.0424
     22 N1         -0.5578   -8.0254    0.7470 N.2       1 <0>        -0.3949
     23 C20        -1.2900   -8.5427   -0.2065 C.2       1 <0>        -0.5388
     24 S1         -2.0609   -7.1989   -0.8704 S.3       1 <0>         0.2326
     25 S2         -1.4340  -10.2333   -0.6817 S.o2      1 <0>         2.5293
     26 O2         -1.8088  -10.1942   -2.0518 O.2       1 <0>        -0.9196
     27 O3         -0.2063  -10.8278   -0.2832 O.2       1 <0>        -0.9078
     28 C21        -2.7981  -10.8848    0.3209 C.3       1 <0>        -0.6416
     29 C22         0.2804   -6.0580    2.0891 C.3       1 <0>        -0.0393
     30 C23        -1.9136   -4.2941    2.7145 C.3       1 <0>        -0.1448
     31 H2          1.0039    1.9031    0.0027 H         1 <0>         0.0582
     32 H3         -0.5459    1.8868   -0.8726 H         1 <0>         0.0648
     33 H4         -0.5289    1.8773    0.9072 H         1 <0>         0.0553
     34 H5         -2.0134   -0.0763    0.6950 H         1 <0>         0.0626
     35 H6         -1.8305   -0.2329   -1.0643 H         1 <0>         0.0655
     36 H7         -2.4884   -2.3860   -0.0340 H         1 <0>         0.0611
     37 H8         -0.8645   -2.4946   -0.7637 H         1 <0>         0.1203
     38 H9         -1.4299   -1.9371    2.1904 H         1 <0>         0.0753
     39 H10         1.1426   -2.5186    0.6470 H         1 <0>         0.0824
     40 H11         0.4356    0.0313    2.1454 H         1 <0>         0.0874
     41 H12         2.5538    0.7163    1.2722 H         1 <0>         0.0695
     42 H13         2.8605   -1.0438    1.3110 H         1 <0>         0.0719
     43 H14         2.7091    0.6775   -1.0103 H         1 <0>         0.0841
     44 H15         2.9639   -1.0903   -0.9743 H         1 <0>         0.0695
     45 H16         0.2708   -4.0730   -1.8452 H         1 <0>         0.2188
     46 H17         1.1720    0.0264   -3.1005 H         1 <0>         0.3803
     47 H18         2.2490   -2.1234    2.8146 H         1 <0>         0.0641
     48 H19         0.6685   -1.8605    3.5868 H         1 <0>         0.0632
     49 H20         2.0361   -4.3305    3.1770 H         1 <0>         0.0650
     50 H21         0.4285   -4.0735    3.8902 H         1 <0>         0.0673
     51 H22        -2.6086   -4.2764    0.1575 H         1 <0>         0.0936
     52 H23        -1.0185   -4.0447   -0.6135 H         1 <0>         0.1142
     53 H24        -3.7082  -10.3259    0.1031 H         1 <0>         0.1337
     54 H25        -2.9527  -11.9375    0.0839 H         1 <0>         0.1420
     55 H26        -2.5531  -10.7826    1.3780 H         1 <0>         0.1371
     56 H27         1.2739   -6.5054    2.1172 H         1 <0>         0.0863
     57 H28        -0.2098   -6.1991    3.0524 H         1 <0>         0.0881
     58 H29        -2.9031   -3.8796    2.5217 H         1 <0>         0.0576
     59 H30        -1.9866   -5.3770    2.8156 H         1 <0>         0.0566
     60 H31        -1.5148   -3.8693    3.6357 H         1 <0>         0.0652
@<TRIPOS>BOND
     1    1    2 1
     2    1   31 1
     3    1   32 1
     4    1   33 1
     5    2    7 1
     6    2   10 1
     7    2    3 1
     8    3    4 1
     9    3   34 1
    10    3   35 1
    11    4    5 1
    12    4   36 1
    13    4   37 1
    14    5   18 1
    15    5    6 1
    16    5   38 1
    17    6    7 1
    18    6   14 1
    19    6   39 1
    20    7    8 1
    21    7   40 1
    22    8    9 1
    23    8   41 1
    24    8   42 1
    25    9   10 1
    26    9   43 1
    27    9   44 1
    28   10   11 1
    29   10   13 1
    30   11   12 3
    31   12   45 1
    32   13   46 1
    33   14   15 1
    34   14   47 1
    35   14   48 1
    36   15   16 1
    37   15   49 1
    38   15   50 1
    39   16   17 1
    40   16   29 1
    41   16   18 1
    42   18   19 1
    43   18   30 1
    44   19   20 1
    45   19   51 1
    46   19   52 1
    47   20   24 1
    48   20   21 2
    49   21   22 1
    50   21   29 1
    51   22   23 2
    52   23   24 1
    53   23   25 1
    54   25   26 2
    55   25   27 2
    56   25   28 1
    57   28   53 1
    58   28   54 1
    59   28   55 1
    60   29   56 1
    61   29   57 1
    62   30   58 1
    63   30   59 1
    64   30   60 1
@<TRIPOS>MOLECULE
CHEMBL295204__4
   60    64     0     0     0
SMALL
USER_CHARGES

@<TRIPOS>ATOM
      1 C1         -0.0187    1.5258    0.0104 C.3       1 <0>        -0.1362
      2 C2          0.0021   -0.0041    0.0020 C.3       1 <0>        -0.0437
      3 C3         -1.4160   -0.5362    0.0689 C.3       1 <0>        -0.1005
      4 C4         -2.0823    0.0933    1.3035 C.3       1 <0>        -0.1218
      5 C5         -1.3012   -0.2150    2.5769 C.3       1 <0>        -0.0689
      6 C6          0.1702    0.2018    2.4554 C.3       1 <0>        -0.0742
      7 C7          0.7519   -0.5259    1.2577 C.3       1 <0>        -0.0823
      8 C8          2.2063   -0.1874    0.9126 C.3       1 <0>        -0.1124
      9 C9          2.3052   -0.5691   -0.5897 C.3       1 <0>        -0.1451
     10 C10         0.8638   -0.5017   -1.1535 C.3       1 <0>         0.2499
     11 C11         0.4206   -1.8386   -1.5815 C.1       1 <0>        -0.2091
     12 C12         0.0670   -2.9047   -1.9229 C.1       1 <0>        -0.1815
     13 O1          0.8024    0.4153   -2.2477 O.3       1 <0>        -0.5407
     14 C13         0.8990   -0.2194    3.7346 C.3       1 <0>        -0.1134
     15 C14         0.2808    0.5225    4.9179 C.3       1 <0>        -0.1147
     16 C15        -1.2021    0.1642    5.0580 C.3       1 <0>        -0.0739
     17 H1         -1.3014   -0.8986    5.2785 H         1 <0>         0.0776
     18 C16        -1.9515    0.4981    3.7663 C.3       1 <0>        -0.0365
     19 C17        -3.3974   -0.0255    3.8743 C.3       1 <0>        -0.0403
     20 C18        -3.9548    0.3607    5.1979 C.2       1 <0>        -0.1574
     21 C19        -3.2734    0.8152    6.2825 C.2       1 <0>         0.0430
     22 N1         -4.0277    1.0828    7.3422 N.2       1 <0>        -0.3960
     23 C20        -5.3266    0.9203    7.3316 C.2       1 <0>        -0.5388
     24 S1         -5.6298    0.3538    5.7735 S.3       1 <0>         0.2371
     25 S2         -6.4782    1.2209    8.6309 S.o2      1 <0>         2.5298
     26 O2         -7.5692    0.3527    8.3565 O.2       1 <0>        -0.9197
     27 O3         -5.7222    1.0789    9.8256 O.2       1 <0>        -0.9078
     28 C21        -6.9852    2.9490    8.4140 C.3       1 <0>        -0.6414
     29 C22        -1.7653    0.9861    6.2258 C.3       1 <0>        -0.0377
     30 C23        -1.9457    2.0106    3.5354 C.3       1 <0>        -0.1501
     31 H2          1.0039    1.9031    0.0027 H         1 <0>         0.0571
     32 H3         -0.5459    1.8868   -0.8726 H         1 <0>         0.0615
     33 H4         -0.5289    1.8773    0.9072 H         1 <0>         0.0654
     34 H5         -1.9612   -0.2533   -0.8316 H         1 <0>         0.0654
     35 H6         -1.4006   -1.6216    0.1686 H         1 <0>         0.0638
     36 H7         -2.1327    1.1739    1.1692 H         1 <0>         0.0735
     37 H8         -3.0941   -0.3000    1.4020 H         1 <0>         0.0632
     38 H9         -1.3324   -1.2900    2.7545 H         1 <0>         0.0694
     39 H10         0.2428    1.2796    2.3093 H         1 <0>         0.0884
     40 H11         0.6149   -1.6020    1.3643 H         1 <0>         0.0770
     41 H12         2.3986    0.8762    1.0537 H         1 <0>         0.0747
     42 H13         2.8938   -0.7871    1.5090 H         1 <0>         0.0701
     43 H14         2.9457    0.1399   -1.1145 H         1 <0>         0.0804
     44 H15         2.7008   -1.5794   -0.6938 H         1 <0>         0.0717
     45 H16        -0.2492   -3.8583   -2.2282 H         1 <0>         0.2178
     46 H17         1.3317    0.1509   -3.0126 H         1 <0>         0.3783
     47 H18         0.7907   -1.2942    3.8801 H         1 <0>         0.0631
     48 H19         1.9556    0.0362    3.6545 H         1 <0>         0.0674
     49 H20         0.8065    0.2453    5.8316 H         1 <0>         0.0661
     50 H21         0.3789    1.5967    4.7609 H         1 <0>         0.0677
     51 H22        -4.0040    0.4121    3.0814 H         1 <0>         0.0942
     52 H23        -3.4001   -1.1115    3.7802 H         1 <0>         0.0958
     53 H24        -7.4431    3.0729    7.4326 H         1 <0>         0.1337
     54 H25        -7.7054    3.2162    9.1873 H         1 <0>         0.1420
     55 H26        -6.1117    3.5964    8.4917 H         1 <0>         0.1371
     56 H27        -1.3248    0.6389    7.1605 H         1 <0>         0.0868
     57 H28        -1.5240    2.0389    6.0791 H         1 <0>         0.0888
     58 H29        -2.5050    2.2418    2.6289 H         1 <0>         0.0617
     59 H30        -2.4099    2.5097    4.3860 H         1 <0>         0.0570
     60 H31        -0.9182    2.3577    3.4269 H         1 <0>         0.0676
@<TRIPOS>BOND
     1    1    2 1
     2    1   31 1
     3    1   32 1
     4    1   33 1
     5    2    7 1
     6    2   10 1
     7    2    3 1
     8    3    4 1
     9    3   34 1
    10    3   35 1
    11    4    5 1
    12    4   36 1
    13    4   37 1
    14    5   18 1
    15    5    6 1
    16    5   38 1
    17    6    7 1
    18    6   14 1
    19    6   39 1
    20    7    8 1
    21    7   40 1
    22    8    9 1
    23    8   41 1
    24    8   42 1
    25    9   10 1
    26    9   43 1
    27    9   44 1
    28   10   11 1
    29   10   13 1
    30   11   12 3
    31   12   45 1
    32   13   46 1
    33   14   15 1
    34   14   47 1
    35   14   48 1
    36   15   16 1
    37   15   49 1
    38   15   50 1
    39   16   17 1
    40   16   29 1
    41   16   18 1
    42   18   19 1
    43   18   30 1
    44   19   20 1
    45   19   51 1
    46   19   52 1
    47   20   24 1
    48   20   21 2
    49   21   22 1
    50   21   29 1
    51   22   23 2
    52   23   24 1
    53   23   25 1
    54   25   26 2
    55   25   27 2
    56   25   28 1
    57   28   53 1
    58   28   54 1
    59   28   55 1
    60   29   56 1
    61   29   57 1
    62   30   58 1
    63   30   59 1
    64   30   60 1
@<TRIPOS>MOLECULE
CHEMBL295204__5
   60    64     0     0     0
SMALL
USER_CHARGES

@<TRIPOS>ATOM
      1 C1         -0.0187    1.5258    0.0104 C.3       1 <0>        -0.1274
      2 C2          0.0021   -0.0041    0.0020 C.3       1 <0>        -0.0280
      3 C3         -1.4078   -0.5907   -0.1044 C.3       1 <0>        -0.1059
      4 C4         -2.1763   -0.3881    1.1986 C.3       1 <0>        -0.1192
      5 C5         -1.4513   -1.1449    2.3168 C.3       1 <0>        -0.0681
      6 C6         -0.0639   -0.5369    2.4968 C.3       1 <0>        -0.0696
      7 C7          0.7355   -0.5741    1.2286 C.3       1 <0>        -0.0726
      8 C8          1.0842   -2.0123    0.8031 C.3       1 <0>        -0.1170
      9 C9          1.4882   -1.8609   -0.6816 C.3       1 <0>        -0.1471
     10 C10         0.8229   -0.5676   -1.1886 C.3       1 <0>         0.2416
     11 C11        -0.0690   -0.8680   -2.3204 C.1       1 <0>        -0.2075
     12 C12        -0.7803   -1.1076   -3.2231 C.1       1 <0>        -0.1843
     13 O1          1.8211    0.3746   -1.5861 O.3       1 <0>        -0.5420
     14 C13         0.6653   -1.2928    3.6126 C.3       1 <0>        -0.1142
     15 C14        -0.1187   -1.1303    4.9128 C.3       1 <0>        -0.1148
     16 C15        -1.5280   -1.7138    4.7619 C.3       1 <0>        -0.0739
     17 H1         -1.4615   -2.7843    4.5680 H         1 <0>         0.0782
     18 C16        -2.2610   -1.0199    3.6120 C.3       1 <0>        -0.0368
     19 C17        -3.6104   -1.7256    3.3741 C.3       1 <0>        -0.0396
     20 C18        -4.2838   -1.9347    4.6836 C.2       1 <0>        -0.1572
     21 C19        -3.7320   -1.8422    5.9222 C.2       1 <0>         0.0433
     22 N1         -4.5681   -2.0889    6.9241 N.2       1 <0>        -0.3962
     23 C20        -5.8259   -2.3906    6.7238 C.2       1 <0>        -0.5384
     24 S1         -5.9654   -2.3578    5.0444 S.3       1 <0>         0.2363
     25 S2         -7.0708   -2.7450    7.9193 S.o2      1 <0>         2.5296
     26 O2         -8.0051   -3.5697    7.2364 O.2       1 <0>        -0.9197
     27 O3         -6.3605   -3.2361    9.0478 O.2       1 <0>        -0.9077
     28 C21        -7.8196   -1.1380    8.3031 C.3       1 <0>        -0.6414
     29 C22        -2.2673   -1.4755    6.0856 C.3       1 <0>        -0.0379
     30 C23        -2.4819    0.4561    3.9491 C.3       1 <0>        -0.1495
     31 H2          1.0039    1.9031    0.0027 H         1 <0>         0.0674
     32 H3         -0.5459    1.8868   -0.8726 H         1 <0>         0.0531
     33 H4         -0.5289    1.8773    0.9072 H         1 <0>         0.0563
     34 H5         -1.9416   -0.0972   -0.9165 H         1 <0>         0.0638
     35 H6         -1.3377   -1.6573   -0.3177 H         1 <0>         0.0644
     36 H7         -2.2135    0.6741    1.4401 H         1 <0>         0.0714
     37 H8         -3.1888   -0.7770    1.0904 H         1 <0>         0.0654
     38 H9         -1.3591   -2.1963    2.0448 H         1 <0>         0.0757
     39 H10        -0.1728    0.5028    2.8055 H         1 <0>         0.0742
     40 H11         1.6641   -0.0231    1.3773 H         1 <0>         0.0771
     41 H12         1.9185   -2.3950    1.3909 H         1 <0>         0.0722
     42 H13         0.2148   -2.6627    0.8999 H         1 <0>         0.0706
     43 H14         2.5720   -1.7818   -0.7675 H         1 <0>         0.0800
     44 H15         1.1291   -2.7152   -1.2554 H         1 <0>         0.0712
     45 H16        -1.4166   -1.3218   -4.0304 H         1 <0>         0.2176
     46 H17         2.3677    0.0794   -2.3272 H         1 <0>         0.3783
     47 H18         0.7307   -2.3500    3.3553 H         1 <0>         0.0655
     48 H19         1.6676   -0.8827    3.7369 H         1 <0>         0.0660
     49 H20         0.4030   -1.6507    5.7160 H         1 <0>         0.0664
     50 H21        -0.1914   -0.0713    5.1603 H         1 <0>         0.0676
     51 H22        -4.2391   -1.1050    2.7355 H         1 <0>         0.0940
     52 H23        -3.4387   -2.6890    2.8941 H         1 <0>         0.0958
     53 H24        -8.2430   -0.7083    7.3953 H         1 <0>         0.1336
     54 H25        -8.6081   -1.2721    9.0437 H         1 <0>         0.1420
     55 H26        -7.0575   -0.4678    8.7010 H         1 <0>         0.1371
     56 H27        -1.8232   -2.0935    6.8660 H         1 <0>         0.0867
     57 H28        -2.1848   -0.4248    6.3637 H         1 <0>         0.0884
     58 H29        -3.0273    0.9367    3.1369 H         1 <0>         0.0616
     59 H30        -3.0581    0.5359    4.8709 H         1 <0>         0.0560
     60 H31        -1.5176    0.9472    4.0798 H         1 <0>         0.0676
@<TRIPOS>BOND
     1    1    2 1
     2    1   31 1
     3    1   32 1
     4    1   33 1
     5    2    7 1
     6    2   10 1
     7    2    3 1
     8    3    4 1
     9    3   34 1
    10    3   35 1
    11    4    5 1
    12    4   36 1
    13    4   37 1
    14    5   18 1
    15    5    6 1
    16    5   38 1
    17    6    7 1
    18    6   14 1
    19    6   39 1
    20    7    8 1
    21    7   40 1
    22    8    9 1
    23    8   41 1
    24    8   42 1
    25    9   10 1
    26    9   43 1
    27    9   44 1
    28   10   11 1
    29   10   13 1
    30   11   12 3
    31   12   45 1
    32   13   46 1
    33   14   15 1
    34   14   47 1
    35   14   48 1
    36   15   16 1
    37   15   49 1
    38   15   50 1
    39   16   17 1
    40   16   29 1
    41   16   18 1
    42   18   19 1
    43   18   30 1
    44   19   20 1
    45   19   51 1
    46   19   52 1
    47   20   24 1
    48   20   21 2
    49   21   22 1
    50   21   29 1
    51   22   23 2
    52   23   24 1
    53   23   25 1
    54   25   26 2
    55   25   27 2
    56   25   28 1
    57   28   53 1
    58   28   54 1
    59   28   55 1
    60   29   56 1
    61   29   57 1
    62   30   58 1
    63   30   59 1
    64   30   60 1
@<TRIPOS>MOLECULE
CHEMBL295204__6
   60    64     0     0     0
SMALL
USER_CHARGES

@<TRIPOS>ATOM
      1 C1         -0.0187    1.5292    0.0105 C.3       1 <0>        -0.1389
      2 C2          0.0021   -0.0041    0.0020 C.3       1 <0>        -0.0306
      3 C3         -1.4088   -0.5328    0.0698 C.3       1 <0>        -0.1037
      4 C4         -2.0059   -0.1675    1.4478 C.3       1 <0>        -0.1088
      5 C5         -1.1838   -0.7927    2.5606 C.3       1 <0>        -0.0713
      6 C6          0.2792   -0.3300    2.5179 C.3       1 <0>        -0.0608
      7 C7          0.8354   -0.5944    1.1539 C.3       1 <0>        -0.0782
      8 C8          2.2398   -0.0774    0.8197 C.3       1 <0>        -0.1131
      9 C9          2.3134   -0.3188   -0.7157 C.3       1 <0>        -0.1453
     10 C10         0.8473   -0.4046   -1.2183 C.3       1 <0>         0.2414
     11 C11         0.5373   -1.7613   -1.6763 C.1       1 <0>        -0.2074
     12 C12         0.2889   -2.8485   -2.0432 C.1       1 <0>        -0.1797
     13 O1          0.6377    0.5395   -2.2722 O.3       1 <0>        -0.5407
     14 C13         0.3596    1.1156    2.9841 C.3       1 <0>        -0.1152
     15 C14        -0.0179    1.1831    4.4650 C.3       1 <0>        -0.1165
     16 C15        -0.6846   -0.1141    4.9278 C.3       1 <0>        -0.0714
     17 H1          0.0760   -0.8991    5.0063 H         1 <0>         0.0780
     18 C16        -1.7708   -0.5687    3.9537 C.3       1 <0>        -0.0307
     19 C17        -2.2897   -1.9542    4.4137 C.3       1 <0>        -0.0430
     20 C18        -2.5753   -1.9106    5.8713 C.2       1 <0>        -0.1569
     21 C19        -2.1268   -1.0000    6.7744 C.2       1 <0>         0.0445
     22 N1         -2.5179   -1.2165    8.0255 N.2       1 <0>        -0.3962
     23 C20        -3.2873   -2.2242    8.3500 C.2       1 <0>        -0.5375
     24 S1         -3.5556   -2.9927    6.8741 S.3       1 <0>         0.2357
     25 S2         -3.8944   -2.6698    9.9430 S.o2      1 <0>         2.5296
     26 O2         -4.1205   -4.0706    9.8661 O.2       1 <0>        -0.9195
     27 O3         -2.9432   -2.1385   10.8551 O.2       1 <0>        -0.9077
     28 C21        -5.4727   -1.7901   10.1032 C.3       1 <0>        -0.6414
     29 C22        -1.2540    0.1565    6.3267 C.3       1 <0>        -0.0389
     30 C23        -2.9292    0.4234    3.9261 C.3       1 <0>        -0.1427
     31 H2          1.0027    1.9062    0.0618 H         1 <0>         0.0577
     32 H3         -0.4942    1.8912   -0.9012 H         1 <0>         0.0664
     33 H4         -0.5795    1.8802    0.8767 H         1 <0>         0.0623
     34 H5         -2.0180   -0.0777   -0.7143 H         1 <0>         0.0664
     35 H6         -1.4320   -1.6178   -0.0340 H         1 <0>         0.0616
     36 H7         -2.0425    0.9106    1.5466 H         1 <0>         0.0722
     37 H8         -3.0234   -0.5699    1.4766 H         1 <0>         0.0622
     38 H9         -1.1792   -1.8823    2.3861 H         1 <0>         0.0651
     39 H10         0.8437   -0.9520    3.2481 H         1 <0>         0.0708
     40 H11         0.8686   -1.7057    1.0237 H         1 <0>         0.0661
     41 H12         2.3592    0.9713    1.0642 H         1 <0>         0.0782
     42 H13         2.9963   -0.6770    1.3320 H         1 <0>         0.0668
     43 H14         2.8282    0.5086   -1.2003 H         1 <0>         0.0815
     44 H15         2.8304   -1.2565   -0.9191 H         1 <0>         0.0701
     45 H16         0.0668   -3.8208   -2.3714 H         1 <0>         0.2183
     46 H17         1.1406    0.3497   -3.0760 H         1 <0>         0.3764
     47 H18         1.3675    1.5018    2.8520 H         1 <0>         0.0669
     48 H19        -0.3550    1.7390    2.4474 H         1 <0>         0.0729
     49 H20         0.8879    1.3504    5.0510 H         1 <0>         0.0638
     50 H21        -0.6960    2.0219    4.6202 H         1 <0>         0.0657
     51 H22        -3.1999   -2.1947    3.8662 H         1 <0>         0.0920
     52 H23        -1.5276   -2.7061    4.2112 H         1 <0>         0.0960
     53 H24        -6.1489   -2.1095    9.3102 H         1 <0>         0.1336
     54 H25        -5.9174   -2.0153   11.0725 H         1 <0>         0.1420
     55 H26        -5.3002   -0.7168   10.0231 H         1 <0>         0.1372
     56 H27        -0.4226    0.2694    7.0307 H         1 <0>         0.0852
     57 H28        -1.8312    1.0795    6.3260 H         1 <0>         0.0879
     58 H29        -3.7189    0.0421    3.2789 H         1 <0>         0.0607
     59 H30        -3.3187    0.5553    4.9356 H         1 <0>         0.0552
     60 H31        -2.5776    1.3819    3.5443 H         1 <0>         0.0656
@<TRIPOS>BOND
     1    1    2 1
     2    1   31 1
     3    1   32 1
     4    1   33 1
     5    2    7 1
     6    2   10 1
     7    2    3 1
     8    3    4 1
     9    3   34 1
    10    3   35 1
    11    4    5 1
    12    4   36 1
    13    4   37 1
    14    5   18 1
    15    5    6 1
    16    5   38 1
    17    6    7 1
    18    6   14 1
    19    6   39 1
    20    7    8 1
    21    7   40 1
    22    8    9 1
    23    8   41 1
    24    8   42 1
    25    9   10 1
    26    9   43 1
    27    9   44 1
    28   10   11 1
    29   10   13 1
    30   11   12 3
    31   12   45 1
    32   13   46 1
    33   14   15 1
    34   14   47 1
    35   14   48 1
    36   15   16 1
    37   15   49 1
    38   15   50 1
    39   16   17 1
    40   16   29 1
    41   16   18 1
    42   18   19 1
    43   18   30 1
    44   19   20 1
    45   19   51 1
    46   19   52 1
    47   20   24 1
    48   20   21 2
    49   21   22 1
    50   21   29 1
    51   22   23 2
    52   23   24 1
    53   23   25 1
    54   25   26 2
    55   25   27 2
    56   25   28 1
    57   28   53 1
    58   28   54 1
    59   28   55 1
    60   29   56 1
    61   29   57 1
    62   30   58 1
    63   30   59 1
    64   30   60 1
@<TRIPOS>MOLECULE
CHEMBL295204__7
   60    64     0     0     0
SMALL
USER_CHARGES

@<TRIPOS>ATOM
      1 C1         -0.0189    1.5456    0.0105 C.3       1 <0>        -0.1341
      2 C2          0.0021   -0.0041    0.0020 C.3       1 <0>        -0.0267
      3 C3         -1.4352   -0.4437   -0.0475 C.3       1 <0>        -0.1009
      4 C4         -1.7413   -1.8334    0.4670 C.3       1 <0>        -0.1086
      5 C5         -1.0040   -2.1942    1.7484 C.3       1 <0>        -0.0591
      6 C6          0.4737   -1.8871    1.6255 C.3       1 <0>        -0.0661
      7 C7          0.7569   -0.4362    1.2688 C.3       1 <0>        -0.0691
      8 C8          2.2476   -0.3316    0.8457 C.3       1 <0>        -0.1239
      9 C9          2.2676   -0.7136   -0.6447 C.3       1 <0>        -0.1442
     10 C10         0.8568   -0.4179   -1.1955 C.3       1 <0>         0.2524
     11 C11         0.3408   -1.6017   -1.8939 C.1       1 <0>        -0.2018
     12 C12        -0.0719   -2.5483   -2.4524 C.1       1 <0>        -0.1826
     13 O1          0.9373    0.6775   -2.1227 O.3       1 <0>        -0.5460
     14 C13         1.2165   -2.2877    2.9005 C.3       1 <0>        -0.1165
     15 C14         0.5742   -1.6179    4.1117 C.3       1 <0>        -0.1136
     16 C15        -0.8803   -2.0749    4.2485 C.3       1 <0>        -0.0746
     17 H1         -0.9003   -3.1672    4.3338 H         1 <0>         0.0755
     18 C16        -1.6777   -1.6681    3.0031 C.3       1 <0>        -0.0267
     19 C17        -3.0604   -2.3659    3.1115 C.3       1 <0>        -0.0443
     20 C18        -3.6473   -1.9740    4.4225 C.2       1 <0>        -0.1579
     21 C19        -2.9746   -1.5584    5.5288 C.2       1 <0>         0.0458
     22 N1         -3.7486   -1.2538    6.5648 N.2       1 <0>        -0.3967
     23 C20        -5.0531   -1.3450    6.5124 C.2       1 <0>        -0.5387
     24 S1         -5.3354   -1.9118    4.9497 S.3       1 <0>         0.2381
     25 S2         -6.2296   -0.9655    7.7675 S.o2      1 <0>         2.5298
     26 O2         -7.3566   -1.7764    7.4653 O.2       1 <0>        -0.9200
     27 O3         -5.5233   -1.1330    8.9891 O.2       1 <0>        -0.9080
     28 C21        -6.6333    0.7848    7.5142 C.3       1 <0>        -0.6414
     29 C22        -1.4599   -1.4595    5.5224 C.3       1 <0>        -0.0352
     30 C23        -1.8957   -0.1585    2.9875 C.3       1 <0>        -0.1523
     31 H2          1.0037    1.9229    0.0028 H         1 <0>         0.0588
     32 H3         -0.5461    1.9067   -0.8725 H         1 <0>         0.0620
     33 H4         -0.5291    1.8971    0.9073 H         1 <0>         0.0502
     34 H5         -2.0485    0.2954    0.4869 H         1 <0>         0.0670
     35 H6         -1.7904   -0.3699   -1.0908 H         1 <0>         0.0565
     36 H7         -2.8274   -1.9150    0.6458 H         1 <0>         0.0600
     37 H8         -1.5129   -2.5839   -0.3013 H         1 <0>         0.0626
     38 H9         -1.0682   -3.3133    1.8228 H         1 <0>         0.0596
     39 H10         0.8763   -2.5187    0.8081 H         1 <0>         0.0670
     40 H11         0.5478    0.2418    2.1084 H         1 <0>         0.0924
     41 H12         2.6187    0.6859    0.9882 H         1 <0>         0.0695
     42 H13         2.8640   -1.0249    1.4227 H         1 <0>         0.0735
     43 H14         3.0063   -0.1119   -1.1786 H         1 <0>         0.0776
     44 H15         2.4997   -1.7725   -0.7642 H         1 <0>         0.0720
     45 H16        -0.4409   -3.3950   -2.9519 H         1 <0>         0.2169
     46 H17         1.4655    0.4881   -2.9103 H         1 <0>         0.3760
     47 H18         1.1677   -3.3730    3.0237 H         1 <0>         0.0620
     48 H19         2.2633   -1.9896    2.8343 H         1 <0>         0.0695
     49 H20         1.1240   -1.9072    5.0114 H         1 <0>         0.0640
     50 H21         0.6218   -0.5365    4.0056 H         1 <0>         0.0693
     51 H22        -3.7027   -2.0320    2.3043 H         1 <0>         0.0930
     52 H23        -2.9220   -3.4435    3.0759 H         1 <0>         0.0964
     53 H24        -7.0502    0.9208    6.5163 H         1 <0>         0.1337
     54 H25        -7.3635    1.1008    8.2592 H         1 <0>         0.1420
     55 H26        -5.7287    1.3846    7.6148 H         1 <0>         0.1371
     56 H27        -1.0699   -2.0046    6.3910 H         1 <0>         0.0843
     57 H28        -1.1575   -0.4173    5.6135 H         1 <0>         0.0877
     58 H29        -2.5278    0.1086    2.1407 H         1 <0>         0.0630
     59 H30        -2.3810    0.1481    3.9141 H         1 <0>         0.0550
     60 H31        -0.9340    0.3466    2.8967 H         1 <0>         0.0690
@<TRIPOS>BOND
     1    1    2 1
     2    1   31 1
     3    1   32 1
     4    1   33 1
     5    2    7 1
     6    2   10 1
     7    2    3 1
     8    3    4 1
     9    3   34 1
    10    3   35 1
    11    4    5 1
    12    4   36 1
    13    4   37 1
    14    5   18 1
    15    5    6 1
    16    5   38 1
    17    6    7 1
    18    6   14 1
    19    6   39 1
    20    7    8 1
    21    7   40 1
    22    8    9 1
    23    8   41 1
    24    8   42 1
    25    9   10 1
    26    9   43 1
    27    9   44 1
    28   10   11 1
    29   10   13 1
    30   11   12 3
    31   12   45 1
    32   13   46 1
    33   14   15 1
    34   14   47 1
    35   14   48 1
    36   15   16 1
    37   15   49 1
    38   15   50 1
    39   16   17 1
    40   16   29 1
    41   16   18 1
    42   18   19 1
    43   18   30 1
    44   19   20 1
    45   19   51 1
    46   19   52 1
    47   20   24 1
    48   20   21 2
    49   21   22 1
    50   21   29 1
    51   22   23 2
    52   23   24 1
    53   23   25 1
    54   25   26 2
    55   25   27 2
    56   25   28 1
    57   28   53 1
    58   28   54 1
    59   28   55 1
    60   29   56 1
    61   29   57 1
    62   30   58 1
    63   30   59 1
    64   30   60 1
@<TRIPOS>MOLECULE
CHEMBL76651
   62    66     0     0     0
SMALL
USER_CHARGES

@<TRIPOS>ATOM
      1 C1          0.1240    1.4534    0.1907 C.3       1 <0>        -0.1497
      2 C2          0.0724   -0.0810    0.2356 C.3       1 <0>        -0.0318
      3 C3          0.7597   -0.6664   -0.9657 C.3       1 <0>        -0.1084
      4 C4          2.2886   -0.5963   -0.8397 C.3       1 <0>        -0.1078
      5 C5          2.7667    0.1374    0.3952 C.3       1 <0>        -0.0649
      6 C6          2.1422   -0.4110    1.6767 C.3       1 <0>        -0.0726
      7 C7          0.6732   -0.6501    1.5348 C.3       1 <0>        -0.0790
      8 C8         -0.2571   -0.0549    2.5985 C.3       1 <0>        -0.1105
      9 C9         -1.6586   -0.2082    1.9454 C.3       1 <0>        -0.1077
     10 C10        -1.4164   -0.4303    0.4288 C.3       1 <0>        -0.1161
     11 C11        -1.7201   -1.8490    0.0532 C.2       1 <0>         0.2960
     12 O1         -1.5517   -2.7393    0.8597 O.2       1 <0>        -0.3909
     13 S1         -2.2870   -2.2020   -1.4665 S.3       1 <0>         0.0340
     14 C12        -2.4956   -3.9515   -1.4479 C.ar      1 <0>         0.0863
     15 C13        -2.9612   -4.6019   -2.5854 C.ar      1 <0>        -0.1365
     16 C14        -3.1200   -5.9759   -2.5573 C.ar      1 <0>        -0.0661
     17 C15        -2.8064   -6.6553   -1.3876 C.ar      1 <0>        -0.1639
     18 C16        -2.3488   -5.9452   -0.2954 C.ar      1 <0>         0.1070
     19 N1         -2.2025   -4.6353   -0.3530 N.ar      1 <0>        -0.4421
     20 C17         2.5001    0.5076    2.8420 C.3       1 <0>        -0.1066
     21 C18         4.0287    0.5199    3.0101 C.3       1 <0>        -0.1250
     22 C19         4.6713   -0.3550    1.9454 C.3       1 <0>         0.1569
     23 C20         4.2879    0.1033    0.5380 C.3       1 <0>        -0.0509
     24 C21         4.9328   -0.8077   -0.4705 C.2       1 <0>        -0.0828
     25 C22         6.1576   -1.2783   -0.2216 C.2       1 <0>        -0.1996
     26 C23         6.8437   -0.9145    1.0289 C.2       1 <0>         0.5451
     27 O2          8.0377   -1.1067    1.1566 O.2       1 <0>        -0.5354
     28 N2          6.1301   -0.3957    2.0565 N.am      1 <0>        -0.6152
     29 C24         6.8216    0.1024    3.2462 C.3       1 <0>         0.0850
     30 C25         4.8164    1.5257    0.3022 C.3       1 <0>        -0.1381
     31 H1          1.1370    1.7895    0.4119 H         1 <0>         0.0704
     32 H2         -0.1643    1.7977   -0.8026 H         1 <0>         0.0590
     33 H3         -0.5642    1.8619    0.9307 H         1 <0>         0.0614
     34 H4          0.4830   -1.7171   -1.1147 H         1 <0>         0.0605
     35 H5          0.4485   -0.1205   -1.8697 H         1 <0>         0.0692
     36 H6          2.6819   -1.6247   -0.8221 H         1 <0>         0.0620
     37 H7          2.6979   -0.1101   -1.7354 H         1 <0>         0.0677
     38 H8          2.5269    1.2024    0.3023 H         1 <0>         0.0879
     39 H9          2.6093   -1.3951    1.8825 H         1 <0>         0.0687
     40 H10         0.5163   -1.7520    1.5482 H         1 <0>         0.0758
     41 H11        -0.2040   -0.6426    3.5195 H         1 <0>         0.0655
     42 H12        -0.0279    0.9843    2.8066 H         1 <0>         0.0737
     43 H13        -2.1741   -1.0677    2.3711 H         1 <0>         0.0744
     44 H14        -2.2440    0.6985    2.0959 H         1 <0>         0.0733
     45 H15        -2.0249    0.2630   -0.1523 H         1 <0>         0.0999
     46 H16        -3.1961   -4.0420   -3.4785 H         1 <0>         0.1432
     47 H17        -3.4801   -6.5081   -3.4253 H         1 <0>         0.1438
     48 H18        -2.9195   -7.7279   -1.3326 H         1 <0>         0.1405
     49 H19        -2.1036   -6.4693    0.6165 H         1 <0>         0.1606
     50 H20         2.1495    1.5179    2.6405 H         1 <0>         0.0707
     51 H21         2.0407    0.1332    3.7571 H         1 <0>         0.0723
     52 H22         4.3919    1.5426    2.9558 H         1 <0>         0.0760
     53 H23         4.2601    0.1173    4.0038 H         1 <0>         0.0718
     54 H24         4.3136   -1.3846    2.0800 H         1 <0>         0.0730
     55 H25         4.4268   -1.0745   -1.3868 H         1 <0>         0.1389
     56 H26         6.6423   -1.9251   -0.9409 H         1 <0>         0.1437
     57 H27         6.9349   -0.7078    3.9665 H         1 <0>         0.0547
     58 H28         7.8052    0.4781    2.9642 H         1 <0>         0.0744
     59 H29         6.2397    0.9080    3.6941 H         1 <0>         0.0730
     60 H30         4.3833    2.2011    1.0400 H         1 <0>         0.0658
     61 H31         5.9021    1.5305    0.3983 H         1 <0>         0.0562
     62 H32         4.5387    1.8551   -0.6991 H         1 <0>         0.0632
@<TRIPOS>BOND
     1    1    2 1
     2    1   31 1
     3    1   32 1
     4    1   33 1
     5    2    7 1
     6    2   10 1
     7    2    3 1
     8    3    4 1
     9    3   34 1
    10    3   35 1
    11    4    5 1
    12    4   36 1
    13    4   37 1
    14    5   23 1
    15    5    6 1
    16    5   38 1
    17    6    7 1
    18    6   20 1
    19    6   39 1
    20    7    8 1
    21    7   40 1
    22    8    9 1
    23    8   41 1
    24    8   42 1
    25    9   10 1
    26    9   43 1
    27    9   44 1
    28   10   11 1
    29   10   45 1
    30   11   12 2
    31   11   13 1
    32   13   14 1
    33   14   19 ar
    34   14   15 ar
    35   15   16 ar
    36   15   46 1
    37   16   17 ar
    38   16   47 1
    39   17   18 ar
    40   17   48 1
    41   18   19 ar
    42   18   49 1
    43   20   21 1
    44   20   50 1
    45   20   51 1
    46   21   22 1
    47   21   52 1
    48   21   53 1
    49   22   28 1
    50   22   23 1
    51   22   54 1
    52   23   24 1
    53   23   30 1
    54   24   25 2
    55   24   55 1
    56   25   26 1
    57   25   56 1
    58   26   27 2
    59   26   28 am
    60   28   29 1
    61   29   57 1
    62   29   58 1
    63   29   59 1
    64   30   60 1
    65   30   61 1
    66   30   62 1
@<TRIPOS>MOLECULE
CHEMBL89136
   56    58     0     0     0
SMALL
USER_CHARGES

@<TRIPOS>ATOM
      1 C1          0.3746    2.0543   -0.4092 C.3       1 <0>        -0.1529
      2 C2          0.6073    0.5421   -0.4138 C.3       1 <0>        -0.1227
      3 C3          1.2147    0.1236   -1.7543 C.3       1 <0>        -0.1388
      4 C4          1.4474   -1.3886   -1.7588 C.3       1 <0>         0.1156
      5 N1          2.0290   -1.7893   -3.0424 N.pl3     1 <0>        -0.6118
      6 C5          3.4840   -1.8119   -3.2121 C.3       1 <0>         0.1159
      7 C6          4.0207   -3.1925   -2.8289 C.3       1 <0>        -0.1402
      8 C7          5.5402   -3.2162   -3.0061 C.3       1 <0>        -0.1220
      9 C8          6.0769   -4.5968   -2.6230 C.3       1 <0>        -0.1533
     10 C9          1.2014   -2.1476   -4.0979 C.ar      1 <0>         0.2629
     11 C10        -0.1828   -2.1197   -3.9354 C.ar      1 <0>        -0.2180
     12 C11        -1.0009   -2.4708   -4.9697 C.ar      1 <0>        -0.0161
     13 C12        -0.4461   -2.8607   -6.1989 C.ar      1 <0>        -0.2003
     14 C13         0.9486   -2.8870   -6.3571 C.ar      1 <0>         0.0198
     15 C14         1.7574   -2.5284   -5.3181 C.ar      1 <0>        -0.2133
     16 C15        -1.3177   -3.2385   -7.3103 C.2       1 <0>         0.1314
     17 C16        -0.9375   -4.2474   -8.1743 C.2       1 <0>        -0.3048
     18 C17        -1.5924   -4.6416   -9.4390 C.2       1 <0>         0.1913
     19 N2         -0.9131   -5.6351   -9.9379 N.2       1 <0>        -0.2661
     20 O1          0.1781   -5.9690   -9.1099 O.3       1 <0>        -0.1583
     21 C18         0.2103   -5.1570   -8.0372 C.2       1 <0>         0.4843
     22 O2          1.0245   -5.1741   -7.1326 O.2       1 <0>        -0.4363
     23 C19        -2.8013   -4.0206  -10.0314 C.ar      1 <0>        -0.0451
     24 C20        -3.0942   -2.6808   -9.7805 C.ar      1 <0>        -0.0918
     25 C21        -4.2206   -2.1081  -10.3350 C.ar      1 <0>        -0.1185
     26 C22        -5.0587   -2.8607  -11.1380 C.ar      1 <0>        -0.0954
     27 C23        -4.7734   -4.1907  -11.3901 C.ar      1 <0>        -0.1183
     28 C24        -3.6465   -4.7725  -10.8461 C.ar      1 <0>        -0.0761
     29 H1          1.3247    2.5685   -0.5540 H         1 <0>         0.0536
     30 H2         -0.3085    2.3192   -1.2162 H         1 <0>         0.0543
     31 H3         -0.0581    2.3524    0.5457 H         1 <0>         0.0557
     32 H4          1.2905    0.2771    0.3932 H         1 <0>         0.0627
     33 H5         -0.3428    0.0278   -0.2691 H         1 <0>         0.0632
     34 H6          0.5316    0.3885   -2.5612 H         1 <0>         0.0674
     35 H7          2.1648    0.6378   -1.8990 H         1 <0>         0.0645
     36 H8          2.1306   -1.6535   -0.9519 H         1 <0>         0.0776
     37 H9          0.4973   -1.9028   -1.6141 H         1 <0>         0.0794
     38 H10         3.7317   -1.6017   -4.2525 H         1 <0>         0.0797
     39 H11         3.9364   -1.0555   -2.5709 H         1 <0>         0.0776
     40 H12         3.7730   -3.4027   -1.7885 H         1 <0>         0.0641
     41 H13         3.5683   -3.9490   -3.4701 H         1 <0>         0.0690
     42 H14         5.7880   -3.0060   -4.0466 H         1 <0>         0.0633
     43 H15         5.9926   -2.4597   -2.3649 H         1 <0>         0.0621
     44 H16         5.6245   -5.3533   -3.2642 H         1 <0>         0.0553
     45 H17         7.1595   -4.6136   -2.7493 H         1 <0>         0.0556
     46 H18         5.8292   -4.8070   -1.5825 H         1 <0>         0.0533
     47 H19        -0.6085   -1.8199   -2.9892 H         1 <0>         0.1290
     48 H20        -2.0732   -2.4492   -4.8426 H         1 <0>         0.1284
     49 H21         1.3805   -3.1865   -7.3005 H         1 <0>         0.1252
     50 H22         2.8304   -2.5438   -5.4401 H         1 <0>         0.1277
     51 H23        -2.2587   -2.7289   -7.4559 H         1 <0>         0.1498
     52 H24        -2.4410   -2.0925   -9.1532 H         1 <0>         0.1300
     53 H25        -4.4485   -1.0703  -10.1413 H         1 <0>         0.1333
     54 H26        -5.9393   -2.4083  -11.5695 H         1 <0>         0.1304
     55 H27        -5.4315   -4.7735  -12.0174 H         1 <0>         0.1330
     56 H28        -3.4224   -5.8097  -11.0472 H         1 <0>         0.1336
@<TRIPOS>BOND
     1    1    2 1
     2    1   29 1
     3    1   30 1
     4    1   31 1
     5    2    3 1
     6    2   32 1
     7    2   33 1
     8    3    4 1
     9    3   34 1
    10    3   35 1
    11    4    5 1
    12    4   36 1
    13    4   37 1
    14    5    6 1
    15    5   10 1
    16    6    7 1
    17    6   38 1
    18    6   39 1
    19    7    8 1
    20    7   40 1
    21    7   41 1
    22    8    9 1
    23    8   42 1
    24    8   43 1
    25    9   44 1
    26    9   45 1
    27    9   46 1
    28   10   15 ar
    29   10   11 ar
    30   11   12 ar
    31   11   47 1
    32   12   13 ar
    33   12   48 1
    34   13   14 ar
    35   13   16 1
    36   14   15 ar
    37   14   49 1
    38   15   50 1
    39   16   17 2
    40   16   51 1
    41   17   21 1
    42   17   18 1
    43   18   19 2
    44   18   23 1
    45   19   20 1
    46   20   21 1
    47   21   22 2
    48   23   28 ar
    49   23   24 ar
    50   24   25 ar
    51   24   52 1
    52   25   26 ar
    53   25   53 1
    54   26   27 ar
    55   26   54 1
    56   27   28 ar
    57   27   55 1
    58   28   56 1
@<TRIPOS>MOLECULE
CHEMBL27812
   37    40     0     0     0
SMALL
USER_CHARGES

@<TRIPOS>ATOM
      1 C1         -0.0165    1.3660    0.0096 C.ar      1 <0>        -0.0154
      2 C2          1.1794    2.0922    0.0020 C.ar      1 <0>        -0.1665
      3 C3          1.1702    3.5110    0.0082 C.2       1 <0>        -0.0588
      4 C4          2.3493    4.1806    0.0011 C.2       1 <0>        -0.1703
      5 C5          3.5698    3.4747   -0.0114 C.2       1 <0>         0.5412
      6 N1          3.5916    2.1286   -0.0181 N.am      1 <0>        -0.6240
      7 C6          2.4130    1.4117   -0.0124 C.ar      1 <0>         0.2419
      8 C7          2.4222    0.0247   -0.0208 C.ar      1 <0>        -0.2448
      9 C8          1.2249   -0.6752   -0.0141 C.ar      1 <0>         0.2836
     10 C9          0.0021   -0.0041    0.0020 C.ar      1 <0>        -0.1497
     11 C10        -1.3062   -0.7330    0.0144 C.3       1 <0>        -0.0410
     12 H1         -1.9785   -0.2732    0.7388 H         1 <0>         0.0893
     13 C11        -1.9530   -0.7125   -1.3871 C.3       1 <0>        -0.1170
     14 C12        -2.9342   -1.9042   -1.3641 C.3       1 <0>        -0.1266
     15 C13        -2.4275   -2.8704   -0.2784 C.3       1 <0>        -0.1197
     16 C14        -1.1518   -2.2315    0.3240 C.3       1 <0>        -0.1053
     17 H2         -1.0807   -2.4105    1.3968 H         1 <0>         0.0874
     18 C15         0.0545   -2.7964   -0.4334 C.3       1 <0>         0.1243
     19 N2          1.2577   -2.0700   -0.0253 N.pl3     1 <0>        -0.7374
     20 O1          4.6208    4.0924   -0.0167 O.2       1 <0>        -0.5234
     21 C16        -0.1346    4.2649    0.0221 C.3       1 <0>         0.5055
     22 F1          0.1215    5.6403    0.0259 F         1 <0>        -0.1683
     23 F2         -0.8776    3.9321   -1.1156 F         1 <0>        -0.1675
     24 F3         -0.8590    3.9222    1.1688 F         1 <0>        -0.1676
     25 H3         -0.9612    1.8891    0.0259 H         1 <0>         0.1337
     26 H4          2.3536    5.2606    0.0053 H         1 <0>         0.1681
     27 H5          3.3606   -0.5096   -0.0329 H         1 <0>         0.1377
     28 H6         -2.4908    0.2222   -1.5459 H         1 <0>         0.0709
     29 H7         -1.1967   -0.8551   -2.1589 H         1 <0>         0.0676
     30 H8         -3.9374   -1.5572   -1.1163 H         1 <0>         0.0672
     31 H9         -2.9398   -2.4020   -2.3338 H         1 <0>         0.0661
     32 H10        -3.1833   -2.9894    0.4979 H         1 <0>         0.0693
     33 H11        -2.1901   -3.8379   -0.7207 H         1 <0>         0.0690
     34 H12         0.1681   -3.8554   -0.2016 H         1 <0>         0.0850
     35 H13        -0.0950   -2.6691   -1.5055 H         1 <0>         0.0674
     36 H14         2.0590   -2.5494    0.2374 H         1 <0>         0.4076
     37 H15         4.4409    1.6601   -0.0269 H         1 <0>         0.4204
@<TRIPOS>BOND
     1    1   10 ar
     2    1    2 ar
     3    1   25 1
     4    2    7 ar
     5    2    3 1
     6    3    4 2
     7    3   21 1
     8    4    5 1
     9    4   26 1
    10    5    6 am
    11    5   20 2
    12    6    7 1
    13    6   37 1
    14    7    8 ar
    15    8    9 ar
    16    8   27 1
    17    9   19 1
    18    9   10 ar
    19   10   11 1
    20   11   12 1
    21   11   16 1
    22   11   13 1
    23   13   14 1
    24   13   28 1
    25   13   29 1
    26   14   15 1
    27   14   30 1
    28   14   31 1
    29   15   16 1
    30   15   32 1
    31   15   33 1
    32   16   17 1
    33   16   18 1
    34   18   19 1
    35   18   34 1
    36   18   35 1
    37   19   36 1
    38   21   22 1
    39   21   23 1
    40   21   24 1
@<TRIPOS>MOLECULE
CHEMBL247995
   47    50     0     0     0
SMALL
USER_CHARGES

@<TRIPOS>ATOM
      1 C1          5.2012    2.2054   -2.4223 C.ar      1 <0>        -0.1194
      2 C2          5.7608    0.9424   -2.4735 C.ar      1 <0>        -0.1172
      3 C3          5.1906   -0.0955   -1.7605 C.ar      1 <0>        -0.1141
      4 C4          4.0611    0.1296   -0.9960 C.ar      1 <0>        -0.0853
      5 C5          3.5020    1.3928   -0.9441 C.ar      1 <0>        -0.1135
      6 C6          4.0714    2.4305   -1.6582 C.ar      1 <0>        -0.1183
      7 C7          3.4389   -1.0022   -0.2195 C.3       1 <0>        -0.0969
      8 C8          4.0721   -1.0751    1.1714 C.3       1 <0>         0.1251
      9 H1          4.0035   -0.1034    1.6605 H         1 <0>         0.1096
     10 C9          5.5440   -1.4963    1.0527 C.3       1 <0>         0.0547
     11 O1          5.6034   -2.7958    0.4601 O.3       1 <0>        -0.2955
     12 C10         4.8091   -3.7666    0.9786 C.ar      1 <0>         0.1375
     13 C11         3.6928   -3.4448    1.7369 C.ar      1 <0>         0.1057
     14 C12         2.8828   -4.4463    2.2590 C.ar      1 <0>        -0.0783
     15 C13         3.1755   -5.7763    2.0352 C.ar      1 <0>        -0.1481
     16 C14         4.2889   -6.1259    1.2819 C.ar      1 <0>         0.1874
     17 C15         5.1140   -5.1171    0.7472 C.ar      1 <0>        -0.1051
     18 C16         6.2819   -5.5011   -0.0440 C.2       1 <0>        -0.0712
     19 C17         6.5298   -6.8215   -0.2365 C.2       1 <0>        -0.1437
     20 C18         5.6732   -7.7937    0.3190 C.2       1 <0>         0.5386
     21 O2          5.9149   -8.9740    0.1336 O.2       1 <0>        -0.5204
     22 N1          4.5973   -7.4522    1.0493 N.am      1 <0>        -0.6214
     23 H2          4.0293   -8.1469    1.4175 H         1 <0>         0.4227
     24 C19         7.1906   -4.4533   -0.6336 C.3       1 <0>         0.5164
     25 F1          8.2249   -5.0769   -1.3398 F         1 <0>        -0.1753
     26 F2          6.4588   -3.6368   -1.5025 F         1 <0>        -0.1589
     27 F3          7.7318   -3.6736    0.3942 F         1 <0>        -0.1622
     28 N2          3.3822   -2.0929    1.9822 N.pl3     1 <0>        -0.6244
     29 C20         2.4083   -1.7114    3.0080 C.3       1 <0>         0.0949
     30 C21         1.0406   -1.4947    2.3574 C.3       1 <0>         0.4242
     31 F4          0.6861   -2.6338    1.6266 F         1 <0>        -0.1770
     32 F5          0.0834   -1.2613    3.3506 F         1 <0>        -0.1812
     33 F6          1.1017   -0.3910    1.5000 F         1 <0>        -0.1801
     34 H3          5.6493    3.0174   -2.9758 H         1 <0>         0.1216
     35 H4          6.6432    0.7665   -3.0708 H         1 <0>         0.1228
     36 H5          5.6273   -1.0825   -1.8010 H         1 <0>         0.1272
     37 H6          2.6194    1.5686   -0.3471 H         1 <0>         0.1209
     38 H7          3.6344    3.4173   -1.6180 H         1 <0>         0.1220
     39 H8          2.3670   -0.8299   -0.1221 H         1 <0>         0.0873
     40 H9          3.6096   -1.9411   -0.7461 H         1 <0>         0.0819
     41 H10         6.0786   -0.7834    0.4249 H         1 <0>         0.1261
     42 H11         5.9969   -1.5254    2.0437 H         1 <0>         0.0773
     43 H12         2.0159   -4.1811    2.8459 H         1 <0>         0.1382
     44 H13         2.5388   -6.5457    2.4463 H         1 <0>         0.1450
     45 H14         7.3865   -7.1287   -0.8180 H         1 <0>         0.1719
     46 H15         2.3351   -2.5045    3.7523 H         1 <0>         0.1250
     47 H16         2.7313   -0.7890    3.4906 H         1 <0>         0.1236
@<TRIPOS>BOND
     1    1    6 ar
     2    1    2 ar
     3    1   34 1
     4    2    3 ar
     5    2   35 1
     6    3    4 ar
     7    3   36 1
     8    4    5 ar
     9    4    7 1
    10    5    6 ar
    11    5   37 1
    12    6   38 1
    13    7    8 1
    14    7   39 1
    15    7   40 1
    16    8    9 1
    17    8   28 1
    18    8   10 1
    19   10   11 1
    20   10   41 1
    21   10   42 1
    22   11   12 1
    23   12   17 ar
    24   12   13 ar
    25   13   14 ar
    26   13   28 1
    27   14   15 ar
    28   14   43 1
    29   15   16 ar
    30   15   44 1
    31   16   22 1
    32   16   17 ar
    33   17   18 1
    34   18   19 2
    35   18   24 1
    36   19   20 1
    37   19   45 1
    38   20   21 2
    39   20   22 am
    40   22   23 1
    41   24   25 1
    42   24   26 1
    43   24   27 1
    44   28   29 1
    45   29   30 1
    46   29   46 1
    47   29   47 1
    48   30   31 1
    49   30   32 1
    50   30   33 1
@<TRIPOS>MOLECULE
CHEMBL197846
   51    54     0     0     0
SMALL
USER_CHARGES

@<TRIPOS>ATOM
      1 C1         -0.0173    1.5056    0.0406 C.3       1 <0>        -0.1409
      2 C2          0.0019   -0.0008    0.0019 C.2       1 <0>        -0.0551
      3 C3         -1.1326   -0.6822    0.1096 C.2       1 <0>        -0.2203
      4 C4         -1.3030   -2.1454    0.2412 C.2       1 <0>         0.3912
      5 O1         -0.4242   -2.9549    0.4452 O.2       1 <0>        -0.4470
      6 C5         -2.7909   -2.4597    0.0584 C.3       1 <0>        -0.1681
      7 C6         -3.2956   -1.1949   -0.6558 C.3       1 <0>        -0.0669
      8 C7         -2.5379   -0.1090    0.1418 C.3       1 <0>        -0.0136
      9 C8         -2.7051    1.2325   -0.5235 C.3       1 <0>        -0.1075
     10 C9         -4.1527    1.4464   -0.9849 C.3       1 <0>        -0.1143
     11 C10        -5.1295    0.4792   -0.3303 C.3       1 <0>        -0.0676
     12 C11        -4.7774   -0.9662   -0.6664 C.3       1 <0>        -0.0684
     13 C12        -5.5515   -1.9531    0.1927 C.3       1 <0>        -0.1093
     14 C13        -6.9847   -1.4683    0.4148 C.3       1 <0>        -0.0962
     15 C14        -7.3598   -0.5018   -0.6830 C.2       1 <0>        -0.0144
     16 C15        -8.3799   -0.7684   -1.4912 C.2       1 <0>        -0.2412
     17 C16        -8.7562    0.1475   -2.5645 C.2       1 <0>         0.3875
     18 O2         -9.7316   -0.0919   -3.2478 O.2       1 <0>        -0.4656
     19 C17        -7.9396    1.3847   -2.8318 C.3       1 <0>        -0.1694
     20 C18        -6.5198    1.1960   -2.2943 C.3       1 <0>        -0.1060
     21 C19        -6.5566    0.7668   -0.8322 C.3       1 <0>        -0.0363
     22 C20        -7.1733    1.8696    0.0310 C.3       1 <0>        -0.1403
     23 C21        -2.9502   -0.0542    1.6127 C.3       1 <0>        -0.1477
     24 H1         -0.5243    1.8394    0.9459 H         1 <0>         0.0763
     25 H2          1.0056    1.8823    0.0371 H         1 <0>         0.0662
     26 H3         -0.5470    1.8848   -0.8333 H         1 <0>         0.0851
     27 H4          0.9385   -0.5261   -0.1135 H         1 <0>         0.1214
     28 H5         -2.9139   -3.3333   -0.5861 H         1 <0>         0.0930
     29 H6         -3.2802   -2.6182    1.0112 H         1 <0>         0.1096
     30 H7         -2.9201   -1.2109   -1.6987 H         1 <0>         0.0806
     31 H8         -2.4259    2.0297    0.1774 H         1 <0>         0.0685
     32 H9         -2.0380    1.3016   -1.3926 H         1 <0>         0.0692
     33 H10        -4.4488    2.4758   -0.7564 H         1 <0>         0.0673
     34 H11        -4.1933    1.3203   -2.0736 H         1 <0>         0.0669
     35 H12        -5.1490    0.6272    0.7482 H         1 <0>         0.0872
     36 H13        -5.1217   -1.1338   -1.7108 H         1 <0>         0.0666
     37 H14        -5.5805   -2.9205   -0.3087 H         1 <0>         0.0699
     38 H15        -5.0651   -2.0631    1.1593 H         1 <0>         0.0719
     39 H16        -7.6611   -2.3228    0.3937 H         1 <0>         0.0777
     40 H17        -7.0533   -0.9712    1.3811 H         1 <0>         0.0839
     41 H18        -8.9428   -1.6800   -1.3497 H         1 <0>         0.1299
     42 H19        -7.8921    1.5528   -3.9135 H         1 <0>         0.0946
     43 H20        -8.4107    2.2494   -2.3685 H         1 <0>         0.1027
     44 H21        -6.0072    0.4344   -2.8869 H         1 <0>         0.0721
     45 H22        -5.9752    2.1393   -2.3870 H         1 <0>         0.0836
     46 H23        -6.5672    2.7724   -0.0452 H         1 <0>         0.0673
     47 H24        -8.1846    2.0805   -0.3168 H         1 <0>         0.0590
     48 H25        -7.2074    1.5415    1.0699 H         1 <0>         0.0614
     49 H26        -2.3105    0.6511    2.1432 H         1 <0>         0.0587
     50 H27        -3.9883    0.2697    1.6872 H         1 <0>         0.0716
     51 H28        -2.8458   -1.0443    2.0565 H         1 <0>         0.0553
@<TRIPOS>BOND
     1    1    2 1
     2    1   24 1
     3    1   25 1
     4    1   26 1
     5    2    3 2
     6    2   27 1
     7    3    8 1
     8    3    4 1
     9    4    5 2
    10    4    6 1
    11    6    7 1
    12    6   28 1
    13    6   29 1
    14    7   12 1
    15    7    8 1
    16    7   30 1
    17    8    9 1
    18    8   23 1
    19    9   10 1
    20    9   31 1
    21    9   32 1
    22   10   11 1
    23   10   33 1
    24   10   34 1
    25   11   21 1
    26   11   12 1
    27   11   35 1
    28   12   13 1
    29   12   36 1
    30   13   14 1
    31   13   37 1
    32   13   38 1
    33   14   15 1
    34   14   39 1
    35   14   40 1
    36   15   21 1
    37   15   16 2
    38   16   17 1
    39   16   41 1
    40   17   18 2
    41   17   19 1
    42   19   20 1
    43   19   42 1
    44   19   43 1
    45   20   21 1
    46   20   44 1
    47   20   45 1
    48   21   22 1
    49   22   46 1
    50   22   47 1
    51   22   48 1
    52   23   49 1
    53   23   50 1
    54   23   51 1
@<TRIPOS>MOLECULE
CHEMBL197846__1
   51    54     0     0     0
SMALL
USER_CHARGES

@<TRIPOS>ATOM
      1 C1         -0.0255    1.5160    0.0238 C.3       1 <0>        -0.1403
      2 C2          0.0015    0.0094    0.0019 C.2       1 <0>        -0.0559
      3 C3         -1.1286   -0.6755    0.1102 C.2       1 <0>        -0.2205
      4 C4         -1.3001   -2.1399    0.2451 C.2       1 <0>         0.3922
      5 O1         -0.4287   -2.9455    0.4896 O.2       1 <0>        -0.4462
      6 C5         -2.7795   -2.4597    0.0038 C.3       1 <0>        -0.1666
      7 C6         -3.2613   -1.1818   -0.7010 C.3       1 <0>        -0.0755
      8 C7         -2.5404   -0.1133    0.1422 C.3       1 <0>        -0.0132
      9 C8         -2.7232    1.2432   -0.4799 C.3       1 <0>        -0.1051
     10 C9         -4.1900    1.4935   -0.8601 C.3       1 <0>        -0.1150
     11 C10        -5.1382    0.4305   -0.3426 C.3       1 <0>        -0.0680
     12 C11        -4.7562   -0.9719   -0.7846 C.3       1 <0>        -0.0602
     13 C12        -5.1288   -1.1949   -2.2616 C.3       1 <0>        -0.1160
     14 C13        -6.6388   -1.0729   -2.4456 C.3       1 <0>        -0.0974
     15 C14        -7.0422    0.3147   -1.9801 C.2       1 <0>        -0.0152
     16 C15        -7.7749    1.0541   -2.8143 C.2       1 <0>        -0.2447
     17 C16        -8.1999    2.4017   -2.4196 C.2       1 <0>         0.3878
     18 O2         -8.5270    3.2345   -3.2380 O.2       1 <0>        -0.4575
     19 C17        -8.2056    2.6967   -0.9315 C.3       1 <0>        -0.1690
     20 C18        -6.8498    2.2519   -0.3799 C.3       1 <0>        -0.1104
     21 C19        -6.6014    0.7724   -0.6290 C.3       1 <0>        -0.0277
     22 C20        -7.4372    0.0073    0.4083 C.3       1 <0>        -0.1474
     23 C21        -2.9531   -0.1200    1.6133 C.3       1 <0>        -0.1490
     24 H1         -0.5412    1.8571    0.9214 H         1 <0>         0.0765
     25 H2          0.9955    1.8976    0.0241 H         1 <0>         0.0663
     26 H3         -0.5502    1.8828   -0.8584 H         1 <0>         0.0841
     27 H4          0.9413   -0.5125   -0.1020 H         1 <0>         0.1214
     28 H5         -2.8723   -3.3198   -0.6636 H         1 <0>         0.0932
     29 H6         -3.3064   -2.6398    0.9325 H         1 <0>         0.1071
     30 H7         -2.8477   -1.1790   -1.7310 H         1 <0>         0.0821
     31 H8         -2.3861    2.0224    0.2176 H         1 <0>         0.0695
     32 H9         -2.1012    1.3241   -1.3838 H         1 <0>         0.0674
     33 H10        -4.4771    2.4746   -0.4557 H         1 <0>         0.0697
     34 H11        -4.2726    1.5525   -1.9531 H         1 <0>         0.0611
     35 H12        -5.1062    0.4601    0.7584 H         1 <0>         0.0815
     36 H13        -5.2743   -1.7191   -0.1736 H         1 <0>         0.0815
     37 H14        -4.6279   -0.4420   -2.8705 H         1 <0>         0.0680
     38 H15        -4.8002   -2.1884   -2.5654 H         1 <0>         0.0707
     39 H16        -6.8908   -1.1874   -3.5014 H         1 <0>         0.0773
     40 H17        -7.1508   -1.8325   -1.8620 H         1 <0>         0.0857
     41 H18        -8.0560    0.6594   -3.7795 H         1 <0>         0.1332
     42 H19        -8.3355    3.7676   -0.7695 H         1 <0>         0.0918
     43 H20        -9.0123    2.1509   -0.4481 H         1 <0>         0.0996
     44 H21        -6.0782    2.8369   -0.8783 H         1 <0>         0.0760
     45 H22        -6.8193    2.4442    0.6905 H         1 <0>         0.0829
     46 H23        -7.1514    0.3250    1.4110 H         1 <0>         0.0650
     47 H24        -8.4949    0.2166    0.2485 H         1 <0>         0.0594
     48 H25        -7.2584   -1.0626    0.3013 H         1 <0>         0.0621
     49 H26        -2.3170    0.5663    2.1723 H         1 <0>         0.0596
     50 H27        -3.9928    0.1957    1.7004 H         1 <0>         0.0717
     51 H28        -2.8441   -1.1267    2.0167 H         1 <0>         0.0564
@<TRIPOS>BOND
     1    1    2 1
     2    1   24 1
     3    1   25 1
     4    1   26 1
     5    2    3 2
     6    2   27 1
     7    3    8 1
     8    3    4 1
     9    4    5 2
    10    4    6 1
    11    6    7 1
    12    6   28 1
    13    6   29 1
    14    7   12 1
    15    7    8 1
    16    7   30 1
    17    8    9 1
    18    8   23 1
    19    9   10 1
    20    9   31 1
    21    9   32 1
    22   10   11 1
    23   10   33 1
    24   10   34 1
    25   11   21 1
    26   11   12 1
    27   11   35 1
    28   12   13 1
    29   12   36 1
    30   13   14 1
    31   13   37 1
    32   13   38 1
    33   14   15 1
    34   14   39 1
    35   14   40 1
    36   15   21 1
    37   15   16 2
    38   16   17 1
    39   16   41 1
    40   17   18 2
    41   17   19 1
    42   19   20 1
    43   19   42 1
    44   19   43 1
    45   20   21 1
    46   20   44 1
    47   20   45 1
    48   21   22 1
    49   22   46 1
    50   22   47 1
    51   22   48 1
    52   23   49 1
    53   23   50 1
    54   23   51 1
@<TRIPOS>MOLECULE
CHEMBL197846__2
   51    54     0     0     0
SMALL
USER_CHARGES

@<TRIPOS>ATOM
      1 C1         -0.0184    1.5028    0.0103 C.3       1 <0>        -0.1386
      2 C2          0.0021   -0.0041    0.0020 C.2       1 <0>        -0.0555
      3 C3         -1.1388   -0.6836    0.0093 C.2       1 <0>        -0.2166
      4 C4         -1.3235   -2.1542    0.0196 C.2       1 <0>         0.3916
      5 O1         -0.4587   -2.9850    0.1944 O.2       1 <0>        -0.4461
      6 C5         -2.8064   -2.4392   -0.2494 C.3       1 <0>        -0.1673
      7 C6         -3.2597   -1.1203   -0.8943 C.3       1 <0>        -0.0714
      8 C7         -2.5384   -0.1139    0.0257 C.3       1 <0>        -0.0187
      9 C8         -2.7322    1.2840   -0.5003 C.3       1 <0>        -0.1098
     10 C9         -4.2461    1.5876   -0.5242 C.3       1 <0>        -0.1114
     11 C10        -4.9803    0.5870   -1.3939 C.3       1 <0>        -0.0625
     12 C11        -4.7387   -0.8659   -1.0079 C.3       1 <0>        -0.0569
     13 C12        -5.5325   -1.3882    0.1676 C.3       1 <0>        -0.1112
     14 C13        -6.6462   -0.4330    0.5914 C.3       1 <0>        -0.0917
     15 C14        -7.2964    0.0768   -0.6712 C.2       1 <0>        -0.0164
     16 C15        -8.5621   -0.1982   -0.9542 C.2       1 <0>        -0.2413
     17 C16        -9.1718    0.2659   -2.1984 C.2       1 <0>         0.3883
     18 O2        -10.3674    0.1313   -2.3692 O.2       1 <0>        -0.4658
     19 C17        -8.3275    0.8927   -3.2767 C.3       1 <0>        -0.1678
     20 C18        -6.8502    0.5763   -3.0476 C.3       1 <0>        -0.1060
     21 C19        -6.4513    0.9087   -1.6053 C.3       1 <0>        -0.0279
     22 C20        -6.7360    2.3882   -1.3385 C.3       1 <0>        -0.1411
     23 C21        -3.0123   -0.1740    1.4775 C.3       1 <0>        -0.1457
     24 H1          1.0042    1.8801    0.0026 H         1 <0>         0.0660
     25 H2         -0.5455    1.8639   -0.8728 H         1 <0>         0.0828
     26 H3         -0.5286    1.8543    0.9071 H         1 <0>         0.0776
     27 H4          0.9446   -0.5313   -0.0098 H         1 <0>         0.1217
     28 H5         -2.9066   -3.2622   -0.9626 H         1 <0>         0.0921
     29 H6         -3.3421   -2.6613    0.6635 H         1 <0>         0.1092
     30 H7         -2.8085   -1.0692   -1.9133 H         1 <0>         0.0792
     31 H8         -2.2297    2.0036    0.1489 H         1 <0>         0.0761
     32 H9         -2.3307    1.3648   -1.5120 H         1 <0>         0.0667
     33 H10        -4.6482    1.5968    0.4804 H         1 <0>         0.0703
     34 H11        -4.3348    2.5961   -0.9500 H         1 <0>         0.0666
     35 H12        -4.5209    0.6953   -2.4024 H         1 <0>         0.0650
     36 H13        -5.0894   -1.4674   -1.8924 H         1 <0>         0.0638
     37 H14        -6.0265   -2.3242   -0.1543 H         1 <0>         0.0582
     38 H15        -4.9214   -1.6451    1.0144 H         1 <0>         0.0786
     39 H16        -7.3775   -0.9710    1.1901 H         1 <0>         0.0776
     40 H17        -6.2288    0.3935    1.1574 H         1 <0>         0.0852
     41 H18        -9.1519   -0.7743   -0.2561 H         1 <0>         0.1308
     42 H19        -8.6324    0.4784   -4.2466 H         1 <0>         0.0955
     43 H20        -8.4927    1.9679   -3.3036 H         1 <0>         0.1037
     44 H21        -6.6706   -0.4848   -3.2319 H         1 <0>         0.0712
     45 H22        -6.2387    1.1655   -3.7335 H         1 <0>         0.0795
     46 H23        -6.1442    3.0005   -2.0189 H         1 <0>         0.0668
     47 H24        -7.7955    2.5887   -1.4976 H         1 <0>         0.0584
     48 H25        -6.4711    2.6292   -0.3091 H         1 <0>         0.0645
     49 H26        -2.3582    0.4378    2.0988 H         1 <0>         0.0582
     50 H27        -4.0327    0.2036    1.5425 H         1 <0>         0.0697
     51 H28        -2.9839   -1.2062    1.8265 H         1 <0>         0.0549
@<TRIPOS>BOND
     1    1    2 1
     2    1   24 1
     3    1   25 1
     4    1   26 1
     5    2    3 2
     6    2   27 1
     7    3    8 1
     8    3    4 1
     9    4    5 2
    10    4    6 1
    11    6    7 1
    12    6   28 1
    13    6   29 1
    14    7   12 1
    15    7    8 1
    16    7   30 1
    17    8    9 1
    18    8   23 1
    19    9   10 1
    20    9   31 1
    21    9   32 1
    22   10   11 1
    23   10   33 1
    24   10   34 1
    25   11   21 1
    26   11   12 1
    27   11   35 1
    28   12   13 1
    29   12   36 1
    30   13   14 1
    31   13   37 1
    32   13   38 1
    33   14   15 1
    34   14   39 1
    35   14   40 1
    36   15   21 1
    37   15   16 2
    38   16   17 1
    39   16   41 1
    40   17   18 2
    41   17   19 1
    42   19   20 1
    43   19   42 1
    44   19   43 1
    45   20   21 1
    46   20   44 1
    47   20   45 1
    48   21   22 1
    49   22   46 1
    50   22   47 1
    51   22   48 1
    52   23   49 1
    53   23   50 1
    54   23   51 1
@<TRIPOS>MOLECULE
CHEMBL197846__3
   51    54     0     0     0
SMALL
USER_CHARGES

@<TRIPOS>ATOM
      1 C1          0.2239    1.0381    0.1347 C.3       1 <0>        -0.1408
      2 C2         -0.0173   -0.4462    0.0365 C.2       1 <0>        -0.0518
      3 C3         -1.2649   -0.9179   -0.0097 C.2       1 <0>        -0.2129
      4 C4         -1.6718   -2.3380   -0.0994 C.2       1 <0>         0.3919
      5 O1         -0.9297   -3.2977   -0.0868 O.2       1 <0>        -0.4480
      6 C5         -3.1966   -2.3773   -0.2104 C.3       1 <0>        -0.1656
      7 C6         -3.5250   -0.9938   -0.7852 C.3       1 <0>        -0.0776
      8 C7         -2.5288   -0.1143    0.0256 C.3       1 <0>        -0.0247
      9 C8         -2.5075    1.2524   -0.6272 C.3       1 <0>        -0.1130
     10 C9         -3.9066    1.8622   -0.4421 C.3       1 <0>        -0.1236
     11 C10        -4.9960    0.9695   -1.0283 C.3       1 <0>        -0.0678
     12 C11        -4.9171   -0.4656   -0.4912 C.3       1 <0>        -0.0774
     13 C12        -5.9595   -1.3308   -1.2058 C.3       1 <0>        -0.1145
     14 C13        -7.3600   -0.8288   -0.8481 C.3       1 <0>        -0.0973
     15 C14        -7.4525    0.6476   -1.1878 C.2       1 <0>        -0.0196
     16 C15        -8.5109    1.0576   -1.8866 C.2       1 <0>        -0.2415
     17 C16        -8.6598    2.4761   -2.2294 C.2       1 <0>         0.3877
     18 O2         -9.3603    2.8405   -3.1506 O.2       1 <0>        -0.4574
     19 C17        -7.8915    3.4628   -1.3720 C.3       1 <0>        -0.1682
     20 C18        -6.4480    2.9685   -1.2887 C.3       1 <0>        -0.1055
     21 C19        -6.3687    1.5670   -0.6956 C.3       1 <0>        -0.0270
     22 C20        -6.4769    1.6805    0.8264 C.3       1 <0>        -0.1495
     23 C21        -3.0139    0.0195    1.4705 C.3       1 <0>        -0.1489
     24 H1          1.2964    1.2310    0.1608 H         1 <0>         0.0670
     25 H2         -0.2137    1.5354   -0.7309 H         1 <0>         0.0852
     26 H3         -0.2364    1.4215    1.0453 H         1 <0>         0.0776
     27 H4          0.8195   -1.1283    0.0035 H         1 <0>         0.1231
     28 H5         -3.5147   -3.1654   -0.8930 H         1 <0>         0.0932
     29 H6         -3.6528   -2.5068    0.7711 H         1 <0>         0.1063
     30 H7         -3.3162   -0.9586   -1.8544 H         1 <0>         0.0859
     31 H8         -1.7604    1.8829   -0.1452 H         1 <0>         0.0800
     32 H9         -2.2827    1.1536   -1.6892 H         1 <0>         0.0665
     33 H10        -4.0956    2.0007    0.6225 H         1 <0>         0.0763
     34 H11        -3.9390    2.8332   -0.9363 H         1 <0>         0.0673
     35 H12        -4.8791    0.9333   -2.1114 H         1 <0>         0.0716
     36 H13        -5.0953   -0.4613    0.5842 H         1 <0>         0.0904
     37 H14        -5.8124   -1.2624   -2.2837 H         1 <0>         0.0673
     38 H15        -5.8520   -2.3678   -0.8877 H         1 <0>         0.0729
     39 H16        -8.1038   -1.3828   -1.4207 H         1 <0>         0.0778
     40 H17        -7.5374   -0.9702    0.2180 H         1 <0>         0.0846
     41 H18        -9.2591    0.3450   -2.2009 H         1 <0>         0.1337
     42 H19        -7.9187    4.4515   -1.8301 H         1 <0>         0.0922
     43 H20        -8.3272    3.5040   -0.3737 H         1 <0>         0.0998
     44 H21        -6.0137    2.9694   -2.2885 H         1 <0>         0.0700
     45 H22        -5.8765    3.6454   -0.6538 H         1 <0>         0.0827
     46 H23        -5.6835    2.3279    1.1998 H         1 <0>         0.0704
     47 H24        -7.4459    2.1036    1.0912 H         1 <0>         0.0590
     48 H25        -6.3784    0.6908    1.2724 H         1 <0>         0.0641
     49 H26        -2.2957    0.6075    2.0419 H         1 <0>         0.0575
     50 H27        -3.9834    0.5176    1.4836 H         1 <0>         0.0752
     51 H28        -3.1083   -0.9711    1.9153 H         1 <0>         0.0551
@<TRIPOS>BOND
     1    1    2 1
     2    1   24 1
     3    1   25 1
     4    1   26 1
     5    2    3 2
     6    2   27 1
     7    3    8 1
     8    3    4 1
     9    4    5 2
    10    4    6 1
    11    6    7 1
    12    6   28 1
    13    6   29 1
    14    7   12 1
    15    7    8 1
    16    7   30 1
    17    8    9 1
    18    8   23 1
    19    9   10 1
    20    9   31 1
    21    9   32 1
    22   10   11 1
    23   10   33 1
    24   10   34 1
    25   11   21 1
    26   11   12 1
    27   11   35 1
    28   12   13 1
    29   12   36 1
    30   13   14 1
    31   13   37 1
    32   13   38 1
    33   14   15 1
    34   14   39 1
    35   14   40 1
    36   15   21 1
    37   15   16 2
    38   16   17 1
    39   16   41 1
    40   17   18 2
    41   17   19 1
    42   19   20 1
    43   19   42 1
    44   19   43 1
    45   20   21 1
    46   20   44 1
    47   20   45 1
    48   21   22 1
    49   22   46 1
    50   22   47 1
    51   22   48 1
    52   23   49 1
    53   23   50 1
    54   23   51 1
@<TRIPOS>MOLECULE
CHEMBL197846__4
   51    54     0     0     0
SMALL
USER_CHARGES

@<TRIPOS>ATOM
      1 C1         -0.0246    1.5012   -0.0655 C.3       1 <0>        -0.1446
      2 C2          0.0021   -0.0041    0.0020 C.2       1 <0>        -0.0544
      3 C3         -1.1391   -0.6875    0.1100 C.2       1 <0>        -0.2099
      4 C4         -1.2758   -2.1486    0.2273 C.2       1 <0>         0.3914
      5 O1         -0.3671   -2.9522    0.2499 O.2       1 <0>        -0.4493
      6 C5         -2.7589   -2.4704    0.3158 C.3       1 <0>        -0.1793
      7 C6         -3.4398   -1.2428   -0.3640 C.3       1 <0>        -0.0666
      8 C7         -2.5319   -0.1075    0.1414 C.3       1 <0>        -0.0143
      9 C8         -2.6654    1.1555   -0.6784 C.3       1 <0>        -0.1299
     10 C9         -2.4175    0.8611   -2.1551 C.3       1 <0>        -0.1227
     11 C10        -3.4599   -0.1550   -2.6457 C.3       1 <0>        -0.0606
     12 C11        -3.3072   -1.4638   -1.8760 C.3       1 <0>        -0.0737
     13 C12        -4.3463   -2.5092   -2.2733 C.3       1 <0>        -0.1126
     14 C13        -4.7533   -2.4084   -3.7357 C.3       1 <0>        -0.0946
     15 C14        -3.6303   -1.7843   -4.5258 C.2       1 <0>        -0.0167
     16 C15        -3.0553   -2.4462   -5.5247 C.2       1 <0>        -0.2412
     17 C16        -1.9577   -1.8539   -6.2868 C.2       1 <0>         0.3870
     18 O2         -1.4612   -2.4645   -7.2102 O.2       1 <0>        -0.4642
     19 C17        -1.4424   -0.4834   -5.9246 C.3       1 <0>        -0.1707
     20 C18        -1.6932   -0.2367   -4.4329 C.3       1 <0>        -0.1086
     21 C19        -3.1995   -0.3753   -4.1416 C.3       1 <0>        -0.0341
     22 C20        -3.9876    0.6546   -4.9534 C.3       1 <0>        -0.1393
     23 C21        -2.9004    0.2204    1.5897 C.3       1 <0>        -0.1431
     24 H1         -0.5744    1.8936    0.7899 H         1 <0>         0.0784
     25 H2          0.9959    1.8838   -0.0481 H         1 <0>         0.0662
     26 H3         -0.5146    1.8149   -0.9873 H         1 <0>         0.0910
     27 H4          0.9447   -0.5297   -0.0369 H         1 <0>         0.1230
     28 H5         -2.9860   -3.3862   -0.2299 H         1 <0>         0.0950
     29 H6         -3.0716   -2.5551    1.3565 H         1 <0>         0.1045
     30 H7         -4.4783   -1.1189   -0.0568 H         1 <0>         0.0987
     31 H8         -3.6699    1.5605   -0.5554 H         1 <0>         0.0680
     32 H9         -1.9388    1.8896   -0.3303 H         1 <0>         0.0879
     33 H10        -2.5073    1.7824   -2.7306 H         1 <0>         0.0690
     34 H11        -1.4171    0.4470   -2.2813 H         1 <0>         0.0727
     35 H12        -4.4615    0.2513   -2.5048 H         1 <0>         0.0817
     36 H13        -2.3195   -1.8785   -2.0775 H         1 <0>         0.0677
     37 H14        -3.9343   -3.5017   -2.0904 H         1 <0>         0.0657
     38 H15        -5.2321   -2.3784   -1.6518 H         1 <0>         0.0713
     39 H16        -4.9615   -3.4052   -4.1247 H         1 <0>         0.0766
     40 H17        -5.6466   -1.7899   -3.8227 H         1 <0>         0.0842
     41 H18        -3.4041   -3.4367   -5.7768 H         1 <0>         0.1305
     42 H19        -0.3730   -0.4298   -6.1286 H         1 <0>         0.0949
     43 H20        -1.9660    0.2706   -6.5123 H         1 <0>         0.1035
     44 H21        -1.1307   -0.9608   -3.8435 H         1 <0>         0.0713
     45 H22        -1.3775    0.7733   -4.1718 H         1 <0>         0.0844
     46 H23        -3.6695    1.6587   -4.6732 H         1 <0>         0.0675
     47 H24        -3.8027    0.4982   -6.0162 H         1 <0>         0.0596
     48 H25        -5.0523    0.5405   -4.7493 H         1 <0>         0.0620
     49 H26        -2.2064    0.9638    1.9818 H         1 <0>         0.0584
     50 H27        -3.9154    0.6163    1.6256 H         1 <0>         0.0627
     51 H28        -2.8421   -0.6852    2.1934 H         1 <0>         0.0559
@<TRIPOS>BOND
     1    1    2 1
     2    1   24 1
     3    1   25 1
     4    1   26 1
     5    2    3 2
     6    2   27 1
     7    3    8 1
     8    3    4 1
     9    4    5 2
    10    4    6 1
    11    6    7 1
    12    6   28 1
    13    6   29 1
    14    7   12 1
    15    7    8 1
    16    7   30 1
    17    8    9 1
    18    8   23 1
    19    9   10 1
    20    9   31 1
    21    9   32 1
    22   10   11 1
    23   10   33 1
    24   10   34 1
    25   11   21 1
    26   11   12 1
    27   11   35 1
    28   12   13 1
    29   12   36 1
    30   13   14 1
    31   13   37 1
    32   13   38 1
    33   14   15 1
    34   14   39 1
    35   14   40 1
    36   15   21 1
    37   15   16 2
    38   16   17 1
    39   16   41 1
    40   17   18 2
    41   17   19 1
    42   19   20 1
    43   19   42 1
    44   19   43 1
    45   20   21 1
    46   20   44 1
    47   20   45 1
    48   21   22 1
    49   22   46 1
    50   22   47 1
    51   22   48 1
    52   23   49 1
    53   23   50 1
    54   23   51 1
@<TRIPOS>MOLECULE
CHEMBL197846__5
   51    54     0     0     0
SMALL
USER_CHARGES

@<TRIPOS>ATOM
      1 C1         -0.0260    1.4999   -0.0887 C.3       1 <0>        -0.1437
      2 C2          0.0021   -0.0041    0.0020 C.2       1 <0>        -0.0657
      3 C3         -1.1391   -0.6875    0.1100 C.2       1 <0>        -0.2043
      4 C4         -1.2745   -2.1483    0.2272 C.2       1 <0>         0.4034
      5 O1         -0.3650   -2.9511    0.2487 O.2       1 <0>        -0.4572
      6 C5         -2.7569   -2.4719    0.3175 C.3       1 <0>        -0.1795
      7 C6         -3.4411   -1.2466   -0.3610 C.3       1 <0>        -0.0680
      8 C7         -2.5314   -0.1063    0.1413 C.3       1 <0>        -0.0148
      9 C8         -2.6597    1.1626   -0.6675 C.3       1 <0>        -0.1315
     10 C9         -2.4768    0.8953   -2.1617 C.3       1 <0>        -0.1271
     11 C10        -3.5400   -0.1176   -2.6001 C.3       1 <0>        -0.0632
     12 C11        -3.2802   -1.4429   -1.8718 C.3       1 <0>        -0.0776
     13 C12        -1.8563   -1.9247   -2.1656 C.3       1 <0>        -0.1472
     14 C13        -1.7349   -2.2494   -3.6563 C.3       1 <0>        -0.0940
     15 C14        -2.1472   -1.0290   -4.4588 C.2       1 <0>        -0.0149
     16 C15        -1.3371   -0.6271   -5.4377 C.2       1 <0>        -0.2461
     17 C16        -1.6937    0.5379   -6.2545 C.2       1 <0>         0.3889
     18 O2         -0.8590    1.1619   -6.8757 O.2       1 <0>        -0.4580
     19 C17        -3.1604    0.9210   -6.2818 C.3       1 <0>        -0.1663
     20 C18        -3.6457    0.9758   -4.8339 C.3       1 <0>        -0.1111
     21 C19        -3.4497   -0.3301   -4.1141 C.3       1 <0>        -0.0267
     22 C20        -4.5962   -1.2542   -4.5296 C.3       1 <0>        -0.1474
     23 C21        -2.8959    0.2108    1.5930 C.3       1 <0>        -0.1437
     24 H1         -0.5843    1.9045    0.7555 H         1 <0>         0.0787
     25 H2          0.9937    1.8843   -0.0677 H         1 <0>         0.0662
     26 H3         -0.5078    1.7988   -1.0197 H         1 <0>         0.0897
     27 H4          0.9457   -0.5289   -0.0203 H         1 <0>         0.1235
     28 H5         -2.9833   -3.3882   -0.2277 H         1 <0>         0.0951
     29 H6         -3.0681   -2.5571    1.3586 H         1 <0>         0.1031
     30 H7         -4.4832   -1.1261   -0.0649 H         1 <0>         0.1010
     31 H8         -3.6472    1.5930   -0.5008 H         1 <0>         0.0677
     32 H9         -1.9022    1.8735   -0.3374 H         1 <0>         0.0905
     33 H10        -2.6012    1.8236   -2.7193 H         1 <0>         0.0702
     34 H11        -1.4827    0.4869   -2.3433 H         1 <0>         0.0711
     35 H12        -4.5300    0.2593   -2.3435 H         1 <0>         0.0838
     36 H13        -3.9904   -2.1944   -2.2167 H         1 <0>         0.0813
     37 H14        -1.1453   -1.1410   -1.9043 H         1 <0>         0.0894
     38 H15        -1.6461   -2.8192   -1.5794 H         1 <0>         0.0781
     39 H16        -0.7025   -2.5090   -3.8906 H         1 <0>         0.0768
     40 H17        -2.3886   -3.0862   -3.9023 H         1 <0>         0.0839
     41 H18        -0.4171   -1.1595   -5.6295 H         1 <0>         0.1327
     42 H19        -3.2794    1.8983   -6.7497 H         1 <0>         0.0927
     43 H20        -3.7284    0.1729   -6.8349 H         1 <0>         0.0992
     44 H21        -3.0961    1.7538   -4.3041 H         1 <0>         0.0750
     45 H22        -4.7073    1.2229   -4.8240 H         1 <0>         0.0819
     46 H23        -5.5482   -0.7912   -4.2701 H         1 <0>         0.0652
     47 H24        -4.5554   -1.4225   -5.6057 H         1 <0>         0.0588
     48 H25        -4.5017   -2.2071   -4.0089 H         1 <0>         0.0625
     49 H26        -2.1997    0.9500    1.9892 H         1 <0>         0.0582
     50 H27        -3.9101    0.6079    1.6345 H         1 <0>         0.0629
     51 H28        -2.8375   -0.6997    2.1894 H         1 <0>         0.0565
@<TRIPOS>BOND
     1    1    2 1
     2    1   24 1
     3    1   25 1
     4    1   26 1
     5    2    3 2
     6    2   27 1
     7    3    8 1
     8    3    4 1
     9    4    5 2
    10    4    6 1
    11    6    7 1
    12    6   28 1
    13    6   29 1
    14    7   12 1
    15    7    8 1
    16    7   30 1
    17    8    9 1
    18    8   23 1
    19    9   10 1
    20    9   31 1
    21    9   32 1
    22   10   11 1
    23   10   33 1
    24   10   34 1
    25   11   21 1
    26   11   12 1
    27   11   35 1
    28   12   13 1
    29   12   36 1
    30   13   14 1
    31   13   37 1
    32   13   38 1
    33   14   15 1
    34   14   39 1
    35   14   40 1
    36   15   21 1
    37   15   16 2
    38   16   17 1
    39   16   41 1
    40   17   18 2
    41   17   19 1
    42   19   20 1
    43   19   42 1
    44   19   43 1
    45   20   21 1
    46   20   44 1
    47   20   45 1
    48   21   22 1
    49   22   46 1
    50   22   47 1
    51   22   48 1
    52   23   49 1
    53   23   50 1
    54   23   51 1
@<TRIPOS>MOLECULE
CHEMBL197846__6
   51    54     0     0     0
SMALL
USER_CHARGES

@<TRIPOS>ATOM
      1 C1         -0.0215    1.5025   -0.0244 C.3       1 <0>        -0.1433
      2 C2          0.0021   -0.0041    0.0020 C.2       1 <0>        -0.0553
      3 C3         -1.1384   -0.6871    0.1099 C.2       1 <0>        -0.2091
      4 C4         -1.2637   -2.1503    0.2360 C.2       1 <0>         0.3915
      5 O1         -0.3456   -2.9359    0.3459 O.2       1 <0>        -0.4503
      6 C5         -2.7418   -2.5022    0.1984 C.3       1 <0>        -0.1811
      7 C6         -3.4107   -1.2556   -0.4520 C.3       1 <0>        -0.0652
      8 C7         -2.5375   -0.1300    0.1433 C.3       1 <0>        -0.0096
      9 C8         -2.7106    1.1910   -0.5547 C.3       1 <0>        -0.1358
     10 C9         -2.6424    1.1121   -2.0698 C.3       1 <0>        -0.1077
     11 C10        -3.4546   -0.0295   -2.6649 C.3       1 <0>        -0.0590
     12 C11        -3.1717   -1.3376   -1.9557 C.3       1 <0>        -0.0705
     13 C12        -3.9470   -2.4968   -2.5744 C.3       1 <0>        -0.1156
     14 C13        -5.4477   -2.2044   -2.5287 C.3       1 <0>        -0.0970
     15 C14        -5.6951   -0.9074   -3.2774 C.2       1 <0>        -0.0169
     16 C15        -6.5869   -0.9203   -4.2644 C.2       1 <0>        -0.2432
     17 C16        -6.8749    0.2966   -5.0290 C.2       1 <0>         0.3877
     18 O2         -7.4353    0.2535   -6.1059 O.2       1 <0>        -0.4594
     19 C17        -6.4428    1.6113   -4.4122 C.3       1 <0>        -0.1673
     20 C18        -5.0208    1.4380   -3.8889 C.3       1 <0>        -0.1080
     21 C19        -4.9219    0.3125   -2.8608 C.3       1 <0>        -0.0169
     22 C20        -5.5598    0.8279   -1.5730 C.3       1 <0>        -0.1495
     23 C21        -2.9422    0.0552    1.6132 C.3       1 <0>        -0.1464
     24 H1         -0.5554    1.8729    0.8507 H         1 <0>         0.0788
     25 H2          1.0002    1.8821   -0.0142 H         1 <0>         0.0667
     26 H3         -0.5263    1.8422   -0.9288 H         1 <0>         0.0902
     27 H4          0.9425   -0.5307   -0.0664 H         1 <0>         0.1233
     28 H5         -2.9016   -3.3916   -0.4142 H         1 <0>         0.0969
     29 H6         -3.1260   -2.6752    1.2030 H         1 <0>         0.1049
     30 H7         -4.4601   -1.1610   -0.1833 H         1 <0>         0.1023
     31 H8         -3.6274    1.6715   -0.2238 H         1 <0>         0.0738
     32 H9         -1.8960    1.8588   -0.2175 H         1 <0>         0.0844
     33 H10        -2.9853    2.0655   -2.4956 H         1 <0>         0.0680
     34 H11        -1.5901    0.9960   -2.3739 H         1 <0>         0.0609
     35 H12        -3.0438   -0.1687   -3.7059 H         1 <0>         0.0602
     36 H13        -2.0941   -1.5608   -2.1004 H         1 <0>         0.0682
     37 H14        -3.6387   -2.6244   -3.6166 H         1 <0>         0.0667
     38 H15        -3.7391   -3.4201   -2.0345 H         1 <0>         0.0744
     39 H16        -5.9921   -3.0151   -3.0144 H         1 <0>         0.0766
     40 H17        -5.7773   -2.1104   -1.4967 H         1 <0>         0.0861
     41 H18        -7.1068   -1.8384   -4.5051 H         1 <0>         0.1324
     42 H19        -6.4605    2.3954   -5.1741 H         1 <0>         0.0917
     43 H20        -7.1186    1.8846   -3.6032 H         1 <0>         0.1016
     44 H21        -4.3576    1.2056   -4.7213 H         1 <0>         0.0678
     45 H22        -4.6964    2.3659   -3.4197 H         1 <0>         0.0826
     46 H23        -5.0393    1.7275   -1.2445 H         1 <0>         0.0710
     47 H24        -6.6089    1.0611   -1.7553 H         1 <0>         0.0569
     48 H25        -5.4867    0.0630   -0.7999 H         1 <0>         0.0652
     49 H26        -2.2668    0.7661    2.0892 H         1 <0>         0.0573
     50 H27        -3.9630    0.4340    1.6641 H         1 <0>         0.0627
     51 H28        -2.8841   -0.9029    2.1296 H         1 <0>         0.0563
@<TRIPOS>BOND
     1    1    2 1
     2    1   24 1
     3    1   25 1
     4    1   26 1
     5    2    3 2
     6    2   27 1
     7    3    8 1
     8    3    4 1
     9    4    5 2
    10    4    6 1
    11    6    7 1
    12    6   28 1
    13    6   29 1
    14    7   12 1
    15    7    8 1
    16    7   30 1
    17    8    9 1
    18    8   23 1
    19    9   10 1
    20    9   31 1
    21    9   32 1
    22   10   11 1
    23   10   33 1
    24   10   34 1
    25   11   21 1
    26   11   12 1
    27   11   35 1
    28   12   13 1
    29   12   36 1
    30   13   14 1
    31   13   37 1
    32   13   38 1
    33   14   15 1
    34   14   39 1
    35   14   40 1
    36   15   21 1
    37   15   16 2
    38   16   17 1
    39   16   41 1
    40   17   18 2
    41   17   19 1
    42   19   20 1
    43   19   42 1
    44   19   43 1
    45   20   21 1
    46   20   44 1
    47   20   45 1
    48   21   22 1
    49   22   46 1
    50   22   47 1
    51   22   48 1
    52   23   49 1
    53   23   50 1
    54   23   51 1
@<TRIPOS>MOLECULE
CHEMBL197846__7
   51    54     0     0     0
SMALL
USER_CHARGES

@<TRIPOS>ATOM
      1 C1          0.0461    1.3968    0.0992 C.3       1 <0>        -0.1413
      2 C2          0.0067   -0.1063    0.2005 C.2       1 <0>        -0.0507
      3 C3         -1.1658   -0.7435    0.2171 C.2       1 <0>        -0.2243
      4 C4         -1.3629   -2.1962    0.3180 C.2       1 <0>         0.3908
      5 O1         -0.4867   -3.0337    0.3709 O.2       1 <0>        -0.4498
      6 C5         -2.8610   -2.4643    0.3437 C.3       1 <0>        -0.1702
      7 C6         -3.4465   -1.1268    0.8367 C.3       1 <0>        -0.0669
      8 C7         -2.5479   -0.0939    0.1412 C.3       1 <0>        -0.0110
      9 C8         -2.8958    0.0070   -1.3462 C.3       1 <0>        -0.1056
     10 C9         -4.3836    0.2855   -1.5336 C.3       1 <0>        -0.1197
     11 C10        -5.1805   -0.8960   -0.9670 C.3       1 <0>        -0.0678
     12 C11        -4.9158   -0.9833    0.5249 C.3       1 <0>        -0.0714
     13 C12        -5.6894   -2.1670    1.1158 C.3       1 <0>        -0.1159
     14 C13        -7.1908   -1.9151    0.9644 C.3       1 <0>        -0.0973
     15 C14        -7.4948   -1.6592   -0.5005 C.2       1 <0>        -0.0194
     16 C15        -8.4953   -2.3421   -1.0557 C.2       1 <0>        -0.2407
     17 C16        -8.8405   -2.1216   -2.4643 C.2       1 <0>         0.3875
     18 O2         -9.4526   -2.9474   -3.1088 O.2       1 <0>        -0.4573
     19 C17        -8.3923   -0.8069   -3.0720 C.3       1 <0>        -0.1681
     20 C18        -6.9123   -0.6287   -2.7369 C.3       1 <0>        -0.1052
     21 C19        -6.6720   -0.6444   -1.2235 C.3       1 <0>        -0.0282
     22 C20        -7.0183    0.7406   -0.6734 C.3       1 <0>        -0.1479
     23 C21        -2.5864    1.2654    0.8423 C.3       1 <0>        -0.1470
     24 H1          1.0801    1.7273    0.0004 H         1 <0>         0.0658
     25 H2         -0.5227    1.7171   -0.7736 H         1 <0>         0.0778
     26 H3         -0.3905    1.8331    0.9976 H         1 <0>         0.0862
     27 H4          0.9274   -0.6678    0.2597 H         1 <0>         0.1232
     28 H5         -3.2273   -2.7001   -0.6554 H         1 <0>         0.1054
     29 H6         -3.0964   -3.2681    1.0412 H         1 <0>         0.0945
     30 H7         -3.2973   -1.0451    1.9133 H         1 <0>         0.0794
     31 H8         -2.3197    0.8157   -1.7957 H         1 <0>         0.0659
     32 H9         -2.6413   -0.9313   -1.8390 H         1 <0>         0.0624
     33 H10        -4.6546    1.1978   -1.0021 H         1 <0>         0.0748
     34 H11        -4.6034    0.3992   -2.5952 H         1 <0>         0.0696
     35 H12        -4.8731   -1.8174   -1.4615 H         1 <0>         0.0766
     36 H13        -5.2859   -0.0720    0.9946 H         1 <0>         0.0805
     37 H14        -5.4183   -3.0800    0.5856 H         1 <0>         0.0684
     38 H15        -5.4427   -2.2720    2.1723 H         1 <0>         0.0719
     39 H16        -7.7446   -2.7897    1.3055 H         1 <0>         0.0781
     40 H17        -7.4770   -1.0447    1.5548 H         1 <0>         0.0846
     41 H18        -9.0517   -3.0580   -0.4689 H         1 <0>         0.1338
     42 H19        -8.5266   -0.8338   -4.1533 H         1 <0>         0.0922
     43 H20        -8.9698    0.0137   -2.6465 H         1 <0>         0.0998
     44 H21        -6.3432   -1.4336   -3.2020 H         1 <0>         0.0693
     45 H22        -6.5695    0.3250   -3.1382 H         1 <0>         0.0831
     46 H23        -6.4164    1.4942   -1.1811 H         1 <0>         0.0707
     47 H24        -8.0754    0.9451   -0.8432 H         1 <0>         0.0578
     48 H25        -6.8100    0.7693    0.3962 H         1 <0>         0.0636
     49 H26        -2.0072    1.9876    0.2668 H         1 <0>         0.0718
     50 H27        -3.6191    1.6059    0.9184 H         1 <0>         0.0611
     51 H28        -2.1603    1.1713    1.8411 H         1 <0>         0.0590
@<TRIPOS>BOND
     1    1    2 1
     2    1   24 1
     3    1   25 1
     4    1   26 1
     5    2    3 2
     6    2   27 1
     7    3    8 1
     8    3    4 1
     9    4    5 2
    10    4    6 1
    11    6    7 1
    12    6   28 1
    13    6   29 1
    14    7   12 1
    15    7    8 1
    16    7   30 1
    17    8    9 1
    18    8   23 1
    19    9   10 1
    20    9   31 1
    21    9   32 1
    22   10   11 1
    23   10   33 1
    24   10   34 1
    25   11   21 1
    26   11   12 1
    27   11   35 1
    28   12   13 1
    29   12   36 1
    30   13   14 1
    31   13   37 1
    32   13   38 1
    33   14   15 1
    34   14   39 1
    35   14   40 1
    36   15   21 1
    37   15   16 2
    38   16   17 1
    39   16   41 1
    40   17   18 2
    41   17   19 1
    42   19   20 1
    43   19   42 1
    44   19   43 1
    45   20   21 1
    46   20   44 1
    47   20   45 1
    48   21   22 1
    49   22   46 1
    50   22   47 1
    51   22   48 1
    52   23   49 1
    53   23   50 1
    54   23   51 1
@<TRIPOS>MOLECULE
CHEMBL199238
   74    75     0     0     0
SMALL
USER_CHARGES

@<TRIPOS>ATOM
      1 C1          0.3273    1.4305    0.4469 C.3       1 <0>        -0.1601
      2 C2          0.2428   -0.0818    0.2309 C.3       1 <0>        -0.1121
      3 C3          0.5108   -0.4026   -1.2408 C.3       1 <0>         0.0345
      4 C4          0.2723   -1.8932   -1.4896 C.3       1 <0>        -0.1072
      5 C5          0.5923   -2.2245   -2.9486 C.3       1 <0>        -0.1616
      6 C6         -0.4184    0.4065   -2.1086 C.ar      1 <0>        -0.1121
      7 C7         -1.7731    0.1277   -2.1162 C.ar      1 <0>        -0.0707
      8 C8         -2.6273    0.8671   -2.9101 C.ar      1 <0>        -0.1940
      9 C9         -2.1245    1.8921   -3.7019 C.ar      1 <0>         0.2125
     10 C10        -0.7636    2.1693   -3.6919 C.ar      1 <0>        -0.1566
     11 C11         0.0845    1.4295   -2.8911 C.ar      1 <0>        -0.0702
     12 C12        -0.2137    3.2798   -4.5495 C.3       1 <0>        -0.1074
     13 N1         -2.9857    2.6417   -4.5065 N.pl3     1 <0>        -0.7426
     14 C13        -4.4208    2.3475   -4.5161 C.3       1 <0>         0.0979
     15 C14        -5.1315    3.3062   -5.4736 C.3       1 <0>         0.0967
     16 C15        -6.6428    3.0827   -5.3905 C.3       1 <0>         0.0473
     17 O1         -7.3130    4.0546   -6.1957 O.3       1 <0>        -0.5630
     18 O2         -4.6866    3.0621   -6.8094 O.3       1 <0>        -0.5481
     19 C16         1.9390   -0.0593   -1.5777 C.ar      1 <0>        -0.0969
     20 C17         2.8193    0.2957   -0.5721 C.ar      1 <0>        -0.0845
     21 C18         4.1286    0.6112   -0.8783 C.ar      1 <0>        -0.2087
     22 C19         4.5606    0.5712   -2.1962 C.ar      1 <0>         0.1221
     23 C20         3.6758    0.2144   -3.2031 C.ar      1 <0>        -0.1150
     24 C21         2.3684   -0.1054   -2.8910 C.ar      1 <0>        -0.0749
     25 C22         4.1417    0.1700   -4.6357 C.3       1 <0>        -0.1074
     26 O3          5.8483    0.8816   -2.5002 O.3       1 <0>        -0.2945
     27 C23         6.7032    1.2405   -1.4127 C.3       1 <0>         0.0072
     28 C24         8.0816    1.5490   -1.9379 C.2       1 <0>         0.3639
     29 O4          8.3085    1.4698   -3.1214 O.2       1 <0>        -0.4209
     30 C25         9.1768    1.9564   -0.9863 C.3       1 <0>        -0.1067
     31 C26        10.4657    2.2102   -1.7707 C.3       1 <0>        -0.1360
     32 C27         8.7659    3.2349   -0.2531 C.3       1 <0>        -0.1432
     33 C28         9.4107    0.8378    0.0310 C.3       1 <0>        -0.1432
     34 H1          1.3448    1.7691    0.2519 H         1 <0>         0.0602
     35 H2         -0.3598    1.9336   -0.2335 H         1 <0>         0.0605
     36 H3          0.0569    1.6662    1.4762 H         1 <0>         0.0500
     37 H4          0.9868   -0.5797    0.8527 H         1 <0>         0.0664
     38 H5         -0.7524   -0.4328    0.5039 H         1 <0>         0.0660
     39 H6          0.9171   -2.4787   -0.8342 H         1 <0>         0.0640
     40 H7         -0.7705   -2.1338   -1.2827 H         1 <0>         0.0665
     41 H8          0.0570   -1.5367   -3.6032 H         1 <0>         0.0595
     42 H9          1.6647   -2.1257   -3.1168 H         1 <0>         0.0631
     43 H10         0.2833   -3.2470   -3.1653 H         1 <0>         0.0510
     44 H11        -2.1632   -0.6694   -1.5007 H         1 <0>         0.1175
     45 H12        -3.6849    0.6487   -2.9158 H         1 <0>         0.1161
     46 H13         1.1422    1.6474   -2.8795 H         1 <0>         0.1275
     47 H14        -0.2223    4.2126   -3.9857 H         1 <0>         0.0638
     48 H15         0.8090    3.0410   -4.8414 H         1 <0>         0.0662
     49 H16        -0.8301    3.3890   -5.4419 H         1 <0>         0.0586
     50 H17        -2.6335    3.3570   -5.0589 H         1 <0>         0.4037
     51 H18        -4.5790    1.3208   -4.8462 H         1 <0>         0.0639
     52 H19        -4.8240    2.4723   -3.5112 H         1 <0>         0.0696
     53 H20        -4.9005    4.3346   -5.1958 H         1 <0>         0.1111
     54 H21        -6.8827    2.0830   -5.7527 H         1 <0>         0.0525
     55 H22        -6.9684    3.1818   -4.3550 H         1 <0>         0.0581
     56 H23        -8.2766    3.9728   -6.1904 H         1 <0>         0.3831
     57 H24        -4.8600    2.1643   -7.1239 H         1 <0>         0.3758
     58 H25         2.4825    0.3267    0.4536 H         1 <0>         0.1329
     59 H26         4.8156    0.8891   -0.0926 H         1 <0>         0.1248
     60 H27         1.6802   -0.3872   -3.6741 H         1 <0>         0.1379
     61 H28         4.5189   -0.8268   -4.8643 H         1 <0>         0.0674
     62 H29         3.3068    0.4030   -5.2966 H         1 <0>         0.0642
     63 H30         4.9362    0.9016   -4.7822 H         1 <0>         0.0710
     64 H31         6.3010    2.1196   -0.9092 H         1 <0>         0.0958
     65 H32         6.7604    0.4119   -0.7068 H         1 <0>         0.0959
     66 H33        10.2990    3.0071   -2.4955 H         1 <0>         0.0628
     67 H34        11.2578    2.5049   -1.0824 H         1 <0>         0.0667
     68 H35        10.7584    1.2994   -2.2931 H         1 <0>         0.0628
     69 H36         7.8476    3.0541    0.3057 H         1 <0>         0.0630
     70 H37         9.5580    3.5296    0.4352 H         1 <0>         0.0736
     71 H38         8.5992    4.0318   -0.9778 H         1 <0>         0.0627
     72 H39         9.7035   -0.0730   -0.4914 H         1 <0>         0.0627
     73 H40        10.2029    1.1325    0.7193 H         1 <0>         0.0736
     74 H41         8.4925    0.6570    0.5898 H         1 <0>         0.0631
@<TRIPOS>BOND
     1    1    2 1
     2    1   34 1
     3    1   35 1
     4    1   36 1
     5    2    3 1
     6    2   37 1
     7    2   38 1
     8    3    4 1
     9    3    6 1
    10    3   19 1
    11    4    5 1
    12    4   39 1
    13    4   40 1
    14    5   41 1
    15    5   42 1
    16    5   43 1
    17    6   11 ar
    18    6    7 ar
    19    7    8 ar
    20    7   44 1
    21    8    9 ar
    22    8   45 1
    23    9   10 ar
    24    9   13 1
    25   10   11 ar
    26   10   12 1
    27   11   46 1
    28   12   47 1
    29   12   48 1
    30   12   49 1
    31   13   14 1
    32   13   50 1
    33   14   15 1
    34   14   51 1
    35   14   52 1
    36   15   16 1
    37   15   18 1
    38   15   53 1
    39   16   17 1
    40   16   54 1
    41   16   55 1
    42   17   56 1
    43   18   57 1
    44   19   24 ar
    45   19   20 ar
    46   20   21 ar
    47   20   58 1
    48   21   22 ar
    49   21   59 1
    50   22   23 ar
    51   22   26 1
    52   23   24 ar
    53   23   25 1
    54   24   60 1
    55   25   61 1
    56   25   62 1
    57   25   63 1
    58   26   27 1
    59   27   28 1
    60   27   64 1
    61   27   65 1
    62   28   29 2
    63   28   30 1
    64   30   31 1
    65   30   32 1
    66   30   33 1
    67   31   66 1
    68   31   67 1
    69   31   68 1
    70   32   69 1
    71   32   70 1
    72   32   71 1
    73   33   72 1
    74   33   73 1
    75   33   74 1
@<TRIPOS>MOLECULE
CHEMBL199238__1
   74    75     0     0     0
SMALL
USER_CHARGES

@<TRIPOS>ATOM
      1 C1          0.3273    1.4305    0.4469 C.3       1 <0>        -0.1600
      2 C2          0.2428   -0.0818    0.2309 C.3       1 <0>        -0.1121
      3 C3          0.5108   -0.4026   -1.2408 C.3       1 <0>         0.0345
      4 C4          0.2723   -1.8932   -1.4896 C.3       1 <0>        -0.1072
      5 C5          0.5923   -2.2245   -2.9486 C.3       1 <0>        -0.1616
      6 C6         -0.4184    0.4065   -2.1086 C.ar      1 <0>        -0.1121
      7 C7         -1.7731    0.1277   -2.1162 C.ar      1 <0>        -0.0707
      8 C8         -2.6273    0.8671   -2.9101 C.ar      1 <0>        -0.1941
      9 C9         -2.1245    1.8921   -3.7019 C.ar      1 <0>         0.2126
     10 C10        -0.7636    2.1693   -3.6919 C.ar      1 <0>        -0.1566
     11 C11         0.0845    1.4295   -2.8911 C.ar      1 <0>        -0.0702
     12 C12        -0.2137    3.2798   -4.5495 C.3       1 <0>        -0.1065
     13 N1         -2.9857    2.6417   -4.5065 N.pl3     1 <0>        -0.7424
     14 C13        -4.4208    2.3475   -4.5161 C.3       1 <0>         0.0975
     15 C14        -5.1315    3.3062   -5.4736 C.3       1 <0>         0.0968
     16 C15        -6.6303    2.9990   -5.4836 C.3       1 <0>         0.0473
     17 O1         -7.2772    3.8147   -6.4625 O.3       1 <0>        -0.5630
     18 O2         -4.9241    4.6522   -5.0409 O.3       1 <0>        -0.5479
     19 C16         1.9390   -0.0593   -1.5777 C.ar      1 <0>        -0.0968
     20 C17         2.8193    0.2957   -0.5721 C.ar      1 <0>        -0.0844
     21 C18         4.1286    0.6112   -0.8783 C.ar      1 <0>        -0.2087
     22 C19         4.5606    0.5712   -2.1962 C.ar      1 <0>         0.1221
     23 C20         3.6758    0.2144   -3.2031 C.ar      1 <0>        -0.1151
     24 C21         2.3684   -0.1054   -2.8910 C.ar      1 <0>        -0.0750
     25 C22         4.1417    0.1700   -4.6357 C.3       1 <0>        -0.1073
     26 O3          5.8483    0.8816   -2.5002 O.3       1 <0>        -0.2945
     27 C23         6.7032    1.2405   -1.4127 C.3       1 <0>         0.0072
     28 C24         8.0816    1.5490   -1.9379 C.2       1 <0>         0.3639
     29 O4          8.3085    1.4698   -3.1214 O.2       1 <0>        -0.4209
     30 C25         9.1768    1.9564   -0.9863 C.3       1 <0>        -0.1067
     31 C26        10.4657    2.2102   -1.7707 C.3       1 <0>        -0.1360
     32 C27         8.7659    3.2349   -0.2531 C.3       1 <0>        -0.1432
     33 C28         9.4107    0.8378    0.0310 C.3       1 <0>        -0.1432
     34 H1          1.3448    1.7691    0.2519 H         1 <0>         0.0602
     35 H2         -0.3598    1.9336   -0.2335 H         1 <0>         0.0606
     36 H3          0.0569    1.6662    1.4762 H         1 <0>         0.0500
     37 H4          0.9868   -0.5797    0.8527 H         1 <0>         0.0664
     38 H5         -0.7524   -0.4328    0.5039 H         1 <0>         0.0659
     39 H6          0.9171   -2.4787   -0.8342 H         1 <0>         0.0640
     40 H7         -0.7705   -2.1338   -1.2827 H         1 <0>         0.0665
     41 H8          0.0570   -1.5367   -3.6032 H         1 <0>         0.0595
     42 H9          1.6647   -2.1257   -3.1168 H         1 <0>         0.0631
     43 H10         0.2833   -3.2470   -3.1653 H         1 <0>         0.0510
     44 H11        -2.1632   -0.6694   -1.5007 H         1 <0>         0.1175
     45 H12        -3.6849    0.6487   -2.9158 H         1 <0>         0.1161
     46 H13         1.1422    1.6474   -2.8795 H         1 <0>         0.1274
     47 H14        -0.2223    4.2126   -3.9857 H         1 <0>         0.0645
     48 H15         0.8090    3.0410   -4.8414 H         1 <0>         0.0660
     49 H16        -0.8301    3.3890   -5.4419 H         1 <0>         0.0572
     50 H17        -2.6335    3.3570   -5.0589 H         1 <0>         0.4044
     51 H18        -4.5790    1.3208   -4.8462 H         1 <0>         0.0697
     52 H19        -4.8240    2.4723   -3.5112 H         1 <0>         0.0635
     53 H20        -4.7283    3.1814   -6.4785 H         1 <0>         0.1110
     54 H21        -6.7841    1.9478   -5.7275 H         1 <0>         0.0582
     55 H22        -7.0509    3.2091   -4.5002 H         1 <0>         0.0524
     56 H23        -8.2318    3.6727   -6.5241 H         1 <0>         0.3831
     57 H24        -5.2590    4.8358   -4.1525 H         1 <0>         0.3758
     58 H25         2.4825    0.3267    0.4536 H         1 <0>         0.1329
     59 H26         4.8156    0.8891   -0.0926 H         1 <0>         0.1248
     60 H27         1.6802   -0.3872   -3.6741 H         1 <0>         0.1379
     61 H28         4.5189   -0.8268   -4.8643 H         1 <0>         0.0673
     62 H29         3.3068    0.4030   -5.2966 H         1 <0>         0.0641
     63 H30         4.9362    0.9016   -4.7822 H         1 <0>         0.0710
     64 H31         6.3010    2.1196   -0.9092 H         1 <0>         0.0958
     65 H32         6.7604    0.4119   -0.7068 H         1 <0>         0.0959
     66 H33        10.2990    3.0071   -2.4955 H         1 <0>         0.0628
     67 H34        11.2578    2.5049   -1.0824 H         1 <0>         0.0667
     68 H35        10.7584    1.2994   -2.2931 H         1 <0>         0.0628
     69 H36         7.8476    3.0541    0.3057 H         1 <0>         0.0631
     70 H37         9.5580    3.5296    0.4352 H         1 <0>         0.0736
     71 H38         8.5992    4.0318   -0.9778 H         1 <0>         0.0627
     72 H39         9.7035   -0.0730   -0.4914 H         1 <0>         0.0627
     73 H40        10.2029    1.1325    0.7193 H         1 <0>         0.0736
     74 H41         8.4925    0.6570    0.5898 H         1 <0>         0.0631
@<TRIPOS>BOND
     1    1    2 1
     2    1   34 1
     3    1   35 1
     4    1   36 1
     5    2    3 1
     6    2   37 1
     7    2   38 1
     8    3    4 1
     9    3    6 1
    10    3   19 1
    11    4    5 1
    12    4   39 1
    13    4   40 1
    14    5   41 1
    15    5   42 1
    16    5   43 1
    17    6   11 ar
    18    6    7 ar
    19    7    8 ar
    20    7   44 1
    21    8    9 ar
    22    8   45 1
    23    9   10 ar
    24    9   13 1
    25   10   11 ar
    26   10   12 1
    27   11   46 1
    28   12   47 1
    29   12   48 1
    30   12   49 1
    31   13   14 1
    32   13   50 1
    33   14   15 1
    34   14   51 1
    35   14   52 1
    36   15   16 1
    37   15   18 1
    38   15   53 1
    39   16   17 1
    40   16   54 1
    41   16   55 1
    42   17   56 1
    43   18   57 1
    44   19   24 ar
    45   19   20 ar
    46   20   21 ar
    47   20   58 1
    48   21   22 ar
    49   21   59 1
    50   22   23 ar
    51   22   26 1
    52   23   24 ar
    53   23   25 1
    54   24   60 1
    55   25   61 1
    56   25   62 1
    57   25   63 1
    58   26   27 1
    59   27   28 1
    60   27   64 1
    61   27   65 1
    62   28   29 2
    63   28   30 1
    64   30   31 1
    65   30   32 1
    66   30   33 1
    67   31   66 1
    68   31   67 1
    69   31   68 1
    70   32   69 1
    71   32   70 1
    72   32   71 1
    73   33   72 1
    74   33   73 1
    75   33   74 1
@<TRIPOS>MOLECULE
CHEMBL375107
   24    24     0     0     0
SMALL
USER_CHARGES

@<TRIPOS>ATOM
      1 C1         -0.0187    1.5258    0.0104 C.3       1 <0>        -0.1187
      2 C2          1.4167    2.0553   -0.0004 C.3       1 <0>        -0.1213
      3 C3          2.1328    1.5619   -1.2592 C.3       1 <0>        -0.0484
      4 C4          2.1536    0.0321   -1.2676 C.3       1 <0>        -0.0442
      5 C5          0.7182   -0.4975   -1.2568 C.3       1 <0>        -0.1235
      6 C6          0.0021   -0.0041    0.0020 C.3       1 <0>        -0.0926
      7 C7         -1.4333   -0.5336    0.0129 C.3       1 <0>        -0.0461
      8 C8         -1.4133   -2.0590    0.1302 C.3       1 <0>        -0.0878
      9 Br1        -3.2577   -2.7395    0.1442 Br        1 <0>        -0.1346
     10 Br2        -2.3352   -0.0165   -1.6557 Br        1 <0>        -0.1301
     11 Br3         3.1045   -0.6192    0.3251 Br        1 <0>        -0.1315
     12 Br4         3.9773    2.2424   -1.2732 Br        1 <0>        -0.1361
     13 H1         -0.5289    1.8773    0.9072 H         1 <0>         0.0803
     14 H2         -0.5459    1.8868   -0.8726 H         1 <0>         0.0800
     15 H3          1.4019    3.1452    0.0056 H         1 <0>         0.0852
     16 H4          1.9439    1.6943    0.8826 H         1 <0>         0.0885
     17 H5          1.6057    1.9230   -2.1423 H         1 <0>         0.1215
     18 H6          2.6638   -0.3194   -2.1644 H         1 <0>         0.1182
     19 H7          0.1910   -0.1364   -2.1398 H         1 <0>         0.0993
     20 H8          0.7330   -1.5874   -1.2628 H         1 <0>         0.0870
     21 H9          0.5293   -0.3651    0.8851 H         1 <0>         0.1058
     22 H10        -1.9701   -0.1109    0.8621 H         1 <0>         0.1201
     23 H11        -0.8764   -2.4817   -0.7190 H         1 <0>         0.1121
     24 H12        -0.9132   -2.3457    1.0553 H         1 <0>         0.1168
@<TRIPOS>BOND
     1    1    6 1
     2    1    2 1
     3    1   13 1
     4    1   14 1
     5    2    3 1
     6    2   15 1
     7    2   16 1
     8    3    4 1
     9    3   12 1
    10    3   17 1
    11    4    5 1
    12    4   11 1
    13    4   18 1
    14    5    6 1
    15    5   19 1
    16    5   20 1
    17    6    7 1
    18    6   21 1
    19    7    8 1
    20    7   10 1
    21    7   22 1
    22    8    9 1
    23    8   23 1
    24    8   24 1
@<TRIPOS>MOLECULE
CHEMBL375107__1
   24    24     0     0     0
SMALL
USER_CHARGES

@<TRIPOS>ATOM
      1 C1         -0.0187    1.5258    0.0104 C.3       1 <0>        -0.1255
      2 C2          1.4167    2.0553   -0.0004 C.3       1 <0>        -0.1210
      3 C3          2.1328    1.5619   -1.2592 C.3       1 <0>        -0.0484
      4 C4          2.1536    0.0321   -1.2676 C.3       1 <0>        -0.0444
      5 C5          0.7182   -0.4975   -1.2568 C.3       1 <0>        -0.1173
      6 C6          0.0021   -0.0041    0.0020 C.3       1 <0>        -0.0926
      7 C7         -1.4333   -0.5336    0.0129 C.3       1 <0>        -0.0462
      8 C8         -2.1494   -0.0402    1.2717 C.3       1 <0>        -0.0875
      9 Br1        -3.9939   -0.7207    1.2856 Br        1 <0>        -0.1350
     10 Br2        -2.3842    0.1176   -1.5799 Br        1 <0>        -0.1303
     11 Br3         3.1045   -0.6192    0.3251 Br        1 <0>        -0.1313
     12 Br4         3.9773    2.2424   -1.2732 Br        1 <0>        -0.1361
     13 H1         -0.5289    1.8773    0.9072 H         1 <0>         0.0795
     14 H2         -0.5459    1.8868   -0.8726 H         1 <0>         0.0825
     15 H3          1.4019    3.1452    0.0056 H         1 <0>         0.0848
     16 H4          1.9439    1.6943    0.8826 H         1 <0>         0.0884
     17 H5          1.6057    1.9230   -2.1423 H         1 <0>         0.1215
     18 H6          2.6638   -0.3194   -2.1644 H         1 <0>         0.1185
     19 H7          0.1910   -0.1364   -2.1398 H         1 <0>         0.0969
     20 H8          0.7330   -1.5874   -1.2628 H         1 <0>         0.0884
     21 H9          0.5293   -0.3651    0.8851 H         1 <0>         0.1059
     22 H10        -1.4185   -1.6235    0.0069 H         1 <0>         0.1189
     23 H11        -1.6223   -0.4013    2.1547 H         1 <0>         0.1162
     24 H12        -2.1642    1.0497    1.2777 H         1 <0>         0.1141
@<TRIPOS>BOND
     1    1    6 1
     2    1    2 1
     3    1   13 1
     4    1   14 1
     5    2    3 1
     6    2   15 1
     7    2   16 1
     8    3    4 1
     9    3   12 1
    10    3   17 1
    11    4    5 1
    12    4   11 1
    13    4   18 1
    14    5    6 1
    15    5   19 1
    16    5   20 1
    17    6    7 1
    18    6   21 1
    19    7    8 1
    20    7   10 1
    21    7   22 1
    22    8    9 1
    23    8   23 1
    24    8   24 1
@<TRIPOS>MOLECULE
CHEMBL375107__2
   24    24     0     0     0
SMALL
USER_CHARGES

@<TRIPOS>ATOM
      1 C1         -0.0187    1.5258    0.0104 C.3       1 <0>        -0.1423
      2 C2          1.4167    2.0553   -0.0004 C.3       1 <0>        -0.1117
      3 C3          2.1567    1.5485    1.2391 C.3       1 <0>        -0.0513
      4 C4          2.1775    0.0187    1.2307 C.3       1 <0>        -0.0451
      5 C5          0.7421   -0.5109    1.2415 C.3       1 <0>        -0.1283
      6 C6          0.0021   -0.0041    0.0020 C.3       1 <0>        -0.0794
      7 C7         -1.4333   -0.5336    0.0129 C.3       1 <0>        -0.0500
      8 C8         -2.1352   -0.1312   -1.2857 C.3       1 <0>        -0.0864
      9 Br1        -3.9796   -0.8117   -1.2717 Br        1 <0>        -0.1343
     10 Br2        -2.4015    0.2288    1.5447 Br        1 <0>        -0.1219
     11 Br3         3.1283   -0.6326    2.8234 Br        1 <0>        -0.1322
     12 Br4         1.2365    2.1825    2.8566 Br        1 <0>        -0.1253
     13 H1         -0.5289    1.8773    0.9072 H         1 <0>         0.0972
     14 H2         -0.5459    1.8868   -0.8726 H         1 <0>         0.0768
     15 H3          1.9269    1.7038   -0.8972 H         1 <0>         0.0832
     16 H4          1.4019    3.1452    0.0056 H         1 <0>         0.0871
     17 H5          3.1793    1.9258    1.2314 H         1 <0>         0.1158
     18 H6          2.6876   -0.3328    0.3339 H         1 <0>         0.1197
     19 H7          0.7568   -1.6008    1.2356 H         1 <0>         0.0846
     20 H8          0.2319   -0.1594    2.1383 H         1 <0>         0.1030
     21 H9          0.5123   -0.3556   -0.8948 H         1 <0>         0.0946
     22 H10        -1.4190   -1.6203    0.0965 H         1 <0>         0.1182
     23 H11        -2.1495    0.9555   -1.3693 H         1 <0>         0.1132
     24 H12        -1.5984   -0.5539   -2.1349 H         1 <0>         0.1148
@<TRIPOS>BOND
     1    1    6 1
     2    1    2 1
     3    1   13 1
     4    1   14 1
     5    2    3 1
     6    2   15 1
     7    2   16 1
     8    3    4 1
     9    3   12 1
    10    3   17 1
    11    4    5 1
    12    4   11 1
    13    4   18 1
    14    5    6 1
    15    5   19 1
    16    5   20 1
    17    6    7 1
    18    6   21 1
    19    7    8 1
    20    7   10 1
    21    7   22 1
    22    8    9 1
    23    8   23 1
    24    8   24 1
@<TRIPOS>MOLECULE
CHEMBL375107__3
   24    24     0     0     0
SMALL
USER_CHARGES

@<TRIPOS>ATOM
      1 C1         -0.0187    1.5258    0.0104 C.3       1 <0>        -0.1362
      2 C2          1.4167    2.0553   -0.0004 C.3       1 <0>        -0.1118
      3 C3          2.1567    1.5485    1.2391 C.3       1 <0>        -0.0514
      4 C4          2.1775    0.0187    1.2307 C.3       1 <0>        -0.0451
      5 C5          0.7421   -0.5109    1.2415 C.3       1 <0>        -0.1352
      6 C6          0.0021   -0.0041    0.0020 C.3       1 <0>        -0.0794
      7 C7         -1.4333   -0.5336    0.0129 C.3       1 <0>        -0.0493
      8 C8         -1.4126   -2.0635    0.0045 C.3       1 <0>        -0.0889
      9 Br1        -3.2570   -2.7440    0.0184 Br        1 <0>        -0.1341
     10 Br2        -2.3535    0.1004    1.6304 Br        1 <0>        -0.1221
     11 Br3         3.1283   -0.6326    2.8234 Br        1 <0>        -0.1325
     12 Br4         1.2365    2.1825    2.8566 Br        1 <0>        -0.1253
     13 H1         -0.5289    1.8773    0.9072 H         1 <0>         0.0944
     14 H2         -0.5459    1.8868   -0.8726 H         1 <0>         0.0780
     15 H3          1.9269    1.7038   -0.8972 H         1 <0>         0.0835
     16 H4          1.4019    3.1452    0.0056 H         1 <0>         0.0874
     17 H5          3.1793    1.9258    1.2314 H         1 <0>         0.1159
     18 H6          2.6876   -0.3328    0.3339 H         1 <0>         0.1196
     19 H7          0.7568   -1.6008    1.2356 H         1 <0>         0.0837
     20 H8          0.2319   -0.1594    2.1383 H         1 <0>         0.1058
     21 H9          0.5123   -0.3556   -0.8948 H         1 <0>         0.0948
     22 H10        -1.9605   -0.1726   -0.8702 H         1 <0>         0.1196
     23 H11        -0.9024   -2.4150   -0.8923 H         1 <0>         0.1151
     24 H12        -0.8854   -2.4246    0.8875 H         1 <0>         0.1134
@<TRIPOS>BOND
     1    1    6 1
     2    1    2 1
     3    1   13 1
     4    1   14 1
     5    2    3 1
     6    2   15 1
     7    2   16 1
     8    3    4 1
     9    3   12 1
    10    3   17 1
    11    4    5 1
    12    4   11 1
    13    4   18 1
    14    5    6 1
    15    5   19 1
    16    5   20 1
    17    6    7 1
    18    6   21 1
    19    7    8 1
    20    7   10 1
    21    7   22 1
    22    8    9 1
    23    8   23 1
    24    8   24 1
@<TRIPOS>MOLECULE
CHEMBL375107__4
   24    24     0     0     0
SMALL
USER_CHARGES

@<TRIPOS>ATOM
      1 C1         -0.0187    1.5258    0.0104 C.3       1 <0>        -0.1230
      2 C2          1.4167    2.0553   -0.0004 C.3       1 <0>        -0.1110
      3 C3          2.1328    1.5619   -1.2592 C.3       1 <0>        -0.0480
      4 C4          2.1536    0.0321   -1.2676 C.3       1 <0>        -0.0441
      5 C5          0.7182   -0.4975   -1.2568 C.3       1 <0>        -0.1241
      6 C6          0.0021   -0.0041    0.0020 C.3       1 <0>        -0.0836
      7 C7         -1.4333   -0.5336    0.0129 C.3       1 <0>        -0.0486
      8 C8         -1.4133   -2.0590    0.1302 C.3       1 <0>        -0.0894
      9 Br1        -3.2577   -2.7395    0.1442 Br        1 <0>        -0.1328
     10 Br2        -2.3352   -0.0165   -1.6557 Br        1 <0>        -0.1256
     11 Br3         3.0738   -0.6019   -2.8852 Br        1 <0>        -0.1312
     12 Br4         3.9773    2.2424   -1.2732 Br        1 <0>        -0.1355
     13 H1         -0.5289    1.8773    0.9072 H         1 <0>         0.0816
     14 H2         -0.5459    1.8868   -0.8726 H         1 <0>         0.0824
     15 H3          1.4019    3.1452    0.0056 H         1 <0>         0.0881
     16 H4          1.9439    1.6943    0.8826 H         1 <0>         0.0802
     17 H5          1.6057    1.9230   -2.1423 H         1 <0>         0.1170
     18 H6          2.6808   -0.3290   -0.3846 H         1 <0>         0.1155
     19 H7          0.1910   -0.1364   -2.1398 H         1 <0>         0.0965
     20 H8          0.7330   -1.5874   -1.2628 H         1 <0>         0.0870
     21 H9          0.5293   -0.3651    0.8851 H         1 <0>         0.0984
     22 H10        -1.9701   -0.1109    0.8621 H         1 <0>         0.1210
     23 H11        -0.8764   -2.4817   -0.7190 H         1 <0>         0.1130
     24 H12        -0.9132   -2.3457    1.0553 H         1 <0>         0.1161
@<TRIPOS>BOND
     1    1    6 1
     2    1    2 1
     3    1   13 1
     4    1   14 1
     5    2    3 1
     6    2   15 1
     7    2   16 1
     8    3    4 1
     9    3   12 1
    10    3   17 1
    11    4    5 1
    12    4   11 1
    13    4   18 1
    14    5    6 1
    15    5   19 1
    16    5   20 1
    17    6    7 1
    18    6   21 1
    19    7    8 1
    20    7   10 1
    21    7   22 1
    22    8    9 1
    23    8   23 1
    24    8   24 1
@<TRIPOS>MOLECULE
CHEMBL375107__5
   24    24     0     0     0
SMALL
USER_CHARGES

@<TRIPOS>ATOM
      1 C1         -0.0187    1.5258    0.0104 C.3       1 <0>        -0.1300
      2 C2          1.4167    2.0553   -0.0004 C.3       1 <0>        -0.1107
      3 C3          2.1328    1.5619   -1.2592 C.3       1 <0>        -0.0479
      4 C4          2.1536    0.0321   -1.2676 C.3       1 <0>        -0.0443
      5 C5          0.7182   -0.4975   -1.2568 C.3       1 <0>        -0.1179
      6 C6          0.0021   -0.0041    0.0020 C.3       1 <0>        -0.0834
      7 C7         -1.4333   -0.5336    0.0129 C.3       1 <0>        -0.0490
      8 C8         -2.1494   -0.0402    1.2717 C.3       1 <0>        -0.0881
      9 Br1        -3.9939   -0.7207    1.2856 Br        1 <0>        -0.1335
     10 Br2        -2.3842    0.1176   -1.5799 Br        1 <0>        -0.1258
     11 Br3         3.0738   -0.6019   -2.8852 Br        1 <0>        -0.1310
     12 Br4         3.9773    2.2424   -1.2732 Br        1 <0>        -0.1355
     13 H1         -0.5289    1.8773    0.9072 H         1 <0>         0.0808
     14 H2         -0.5459    1.8868   -0.8726 H         1 <0>         0.0850
     15 H3          1.4019    3.1452    0.0056 H         1 <0>         0.0878
     16 H4          1.9439    1.6943    0.8826 H         1 <0>         0.0801
     17 H5          1.6057    1.9230   -2.1423 H         1 <0>         0.1170
     18 H6          2.6808   -0.3290   -0.3846 H         1 <0>         0.1157
     19 H7          0.1910   -0.1364   -2.1398 H         1 <0>         0.0939
     20 H8          0.7330   -1.5874   -1.2628 H         1 <0>         0.0884
     21 H9          0.5293   -0.3651    0.8851 H         1 <0>         0.0985
     22 H10        -1.4185   -1.6235    0.0069 H         1 <0>         0.1196
     23 H11        -1.6223   -0.4013    2.1547 H         1 <0>         0.1159
     24 H12        -2.1642    1.0497    1.2777 H         1 <0>         0.1143
@<TRIPOS>BOND
     1    1    6 1
     2    1    2 1
     3    1   13 1
     4    1   14 1
     5    2    3 1
     6    2   15 1
     7    2   16 1
     8    3    4 1
     9    3   12 1
    10    3   17 1
    11    4    5 1
    12    4   11 1
    13    4   18 1
    14    5    6 1
    15    5   19 1
    16    5   20 1
    17    6    7 1
    18    6   21 1
    19    7    8 1
    20    7   10 1
    21    7   22 1
    22    8    9 1
    23    8   23 1
    24    8   24 1
@<TRIPOS>MOLECULE
CHEMBL375107__6
   24    24     0     0     0
SMALL
USER_CHARGES

@<TRIPOS>ATOM
      1 C1         -0.0187    1.5258    0.0104 C.3       1 <0>        -0.1378
      2 C2          1.4167    2.0553   -0.0004 C.3       1 <0>        -0.1216
      3 C3          2.1567    1.5485    1.2391 C.3       1 <0>        -0.0479
      4 C4          2.1775    0.0187    1.2307 C.3       1 <0>        -0.0414
      5 C5          0.7421   -0.5109    1.2415 C.3       1 <0>        -0.1273
      6 C6          0.0021   -0.0041    0.0020 C.3       1 <0>        -0.0885
      7 C7         -1.4333   -0.5336    0.0129 C.3       1 <0>        -0.0475
      8 C8         -2.1352   -0.1312   -1.2857 C.3       1 <0>        -0.0858
      9 Br1        -3.9796   -0.8117   -1.2717 Br        1 <0>        -0.1358
     10 Br2        -2.4015    0.2288    1.5447 Br        1 <0>        -0.1260
     11 Br3         3.0977   -0.6153   -0.3868 Br        1 <0>        -0.1345
     12 Br4         1.2365    2.1825    2.8566 Br        1 <0>        -0.1279
     13 H1         -0.5289    1.8773    0.9072 H         1 <0>         0.0950
     14 H2         -0.5459    1.8868   -0.8726 H         1 <0>         0.0761
     15 H3          1.9269    1.7038   -0.8972 H         1 <0>         0.0909
     16 H4          1.4019    3.1452    0.0056 H         1 <0>         0.0849
     17 H5          3.1793    1.9258    1.2314 H         1 <0>         0.1170
     18 H6          2.7046   -0.3424    2.1137 H         1 <0>         0.1192
     19 H7          0.7568   -1.6008    1.2356 H         1 <0>         0.0854
     20 H8          0.2319   -0.1594    2.1383 H         1 <0>         0.1050
     21 H9          0.5123   -0.3556   -0.8948 H         1 <0>         0.1024
     22 H10        -1.4190   -1.6203    0.0965 H         1 <0>         0.1177
     23 H11        -2.1495    0.9555   -1.3693 H         1 <0>         0.1132
     24 H12        -1.5984   -0.5539   -2.1349 H         1 <0>         0.1152
@<TRIPOS>BOND
     1    1    6 1
     2    1    2 1
     3    1   13 1
     4    1   14 1
     5    2    3 1
     6    2   15 1
     7    2   16 1
     8    3    4 1
     9    3   12 1
    10    3   17 1
    11    4    5 1
    12    4   11 1
    13    4   18 1
    14    5    6 1
    15    5   19 1
    16    5   20 1
    17    6    7 1
    18    6   21 1
    19    7    8 1
    20    7   10 1
    21    7   22 1
    22    8    9 1
    23    8   23 1
    24    8   24 1
@<TRIPOS>MOLECULE
CHEMBL375107__7
   24    24     0     0     0
SMALL
USER_CHARGES

@<TRIPOS>ATOM
      1 C1         -0.0187    1.5258    0.0104 C.3       1 <0>        -0.1318
      2 C2          1.4167    2.0553   -0.0004 C.3       1 <0>        -0.1217
      3 C3          2.1567    1.5485    1.2391 C.3       1 <0>        -0.0480
      4 C4          2.1775    0.0187    1.2307 C.3       1 <0>        -0.0413
      5 C5          0.7421   -0.5109    1.2415 C.3       1 <0>        -0.1341
      6 C6          0.0021   -0.0041    0.0020 C.3       1 <0>        -0.0882
      7 C7         -1.4333   -0.5336    0.0129 C.3       1 <0>        -0.0471
      8 C8         -1.4126   -2.0635    0.0045 C.3       1 <0>        -0.0875
      9 Br1        -3.2570   -2.7440    0.0184 Br        1 <0>        -0.1356
     10 Br2        -2.3535    0.1004    1.6304 Br        1 <0>        -0.1262
     11 Br3         3.0977   -0.6153   -0.3868 Br        1 <0>        -0.1346
     12 Br4         1.2365    2.1825    2.8566 Br        1 <0>        -0.1278
     13 H1         -0.5289    1.8773    0.9072 H         1 <0>         0.0923
     14 H2         -0.5459    1.8868   -0.8726 H         1 <0>         0.0773
     15 H3          1.9269    1.7038   -0.8972 H         1 <0>         0.0911
     16 H4          1.4019    3.1452    0.0056 H         1 <0>         0.0853
     17 H5          3.1793    1.9258    1.2314 H         1 <0>         0.1170
     18 H6          2.7046   -0.3424    2.1137 H         1 <0>         0.1190
     19 H7          0.7568   -1.6008    1.2356 H         1 <0>         0.0845
     20 H8          0.2319   -0.1594    2.1383 H         1 <0>         0.1076
     21 H9          0.5123   -0.3556   -0.8948 H         1 <0>         0.1026
     22 H10        -1.9605   -0.1726   -0.8702 H         1 <0>         0.1190
     23 H11        -0.9024   -2.4150   -0.8923 H         1 <0>         0.1159
     24 H12        -0.8854   -2.4246    0.8875 H         1 <0>         0.1124
@<TRIPOS>BOND
     1    1    6 1
     2    1    2 1
     3    1   13 1
     4    1   14 1
     5    2    3 1
     6    2   15 1
     7    2   16 1
     8    3    4 1
     9    3   12 1
    10    3   17 1
    11    4    5 1
    12    4   11 1
    13    4   18 1
    14    5    6 1
    15    5   19 1
    16    5   20 1
    17    6    7 1
    18    6   21 1
    19    7    8 1
    20    7   10 1
    21    7   22 1
    22    8    9 1
    23    8   23 1
    24    8   24 1
@<TRIPOS>MOLECULE
CHEMBL375107__8
   24    24     0     0     0
SMALL
USER_CHARGES

@<TRIPOS>ATOM
      1 C1         -0.0187    1.5258    0.0104 C.3       1 <0>        -0.1304
      2 C2          1.4167    2.0553   -0.0004 C.3       1 <0>        -0.1217
      3 C3          2.1328    1.5619   -1.2592 C.3       1 <0>        -0.0480
      4 C4          2.1536    0.0321   -1.2676 C.3       1 <0>        -0.0413
      5 C5          0.7182   -0.4975   -1.2568 C.3       1 <0>        -0.1347
      6 C6          0.0021   -0.0041    0.0020 C.3       1 <0>        -0.0884
      7 C7         -1.4333   -0.5336    0.0129 C.3       1 <0>        -0.0472
      8 C8         -1.4133   -2.0590    0.1302 C.3       1 <0>        -0.0868
      9 Br1        -3.2577   -2.7395    0.1442 Br        1 <0>        -0.1355
     10 Br2        -2.3352   -0.0165   -1.6557 Br        1 <0>        -0.1262
     11 Br3         3.1045   -0.6192    0.3251 Br        1 <0>        -0.1351
     12 Br4         1.1820    2.2132   -2.8520 Br        1 <0>        -0.1279
     13 H1         -0.5289    1.8773    0.9072 H         1 <0>         0.0773
     14 H2         -0.5459    1.8868   -0.8726 H         1 <0>         0.0905
     15 H3          1.4019    3.1452    0.0056 H         1 <0>         0.0853
     16 H4          1.9439    1.6943    0.8826 H         1 <0>         0.0913
     17 H5          3.1554    1.9392   -1.2670 H         1 <0>         0.1170
     18 H6          2.6638   -0.3194   -2.1644 H         1 <0>         0.1189
     19 H7          0.1910   -0.1364   -2.1398 H         1 <0>         0.1094
     20 H8          0.7330   -1.5874   -1.2628 H         1 <0>         0.0841
     21 H9          0.5293   -0.3651    0.8851 H         1 <0>         0.1025
     22 H10        -1.9701   -0.1109    0.8621 H         1 <0>         0.1191
     23 H11        -0.8764   -2.4817   -0.7190 H         1 <0>         0.1118
     24 H12        -0.9132   -2.3457    1.0553 H         1 <0>         0.1158
@<TRIPOS>BOND
     1    1    6 1
     2    1    2 1
     3    1   13 1
     4    1   14 1
     5    2    3 1
     6    2   15 1
     7    2   16 1
     8    3    4 1
     9    3   12 1
    10    3   17 1
    11    4    5 1
    12    4   11 1
    13    4   18 1
    14    5    6 1
    15    5   19 1
    16    5   20 1
    17    6    7 1
    18    6   21 1
    19    7    8 1
    20    7   10 1
    21    7   22 1
    22    8    9 1
    23    8   23 1
    24    8   24 1
@<TRIPOS>MOLECULE
CHEMBL375107__9
   24    24     0     0     0
SMALL
USER_CHARGES

@<TRIPOS>ATOM
      1 C1         -0.0187    1.5258    0.0104 C.3       1 <0>        -0.1371
      2 C2          1.4167    2.0553   -0.0004 C.3       1 <0>        -0.1216
      3 C3          2.1328    1.5619   -1.2592 C.3       1 <0>        -0.0479
      4 C4          2.1536    0.0321   -1.2676 C.3       1 <0>        -0.0413
      5 C5          0.7182   -0.4975   -1.2568 C.3       1 <0>        -0.1286
      6 C6          0.0021   -0.0041    0.0020 C.3       1 <0>        -0.0884
      7 C7         -1.4333   -0.5336    0.0129 C.3       1 <0>        -0.0473
      8 C8         -2.1494   -0.0402    1.2717 C.3       1 <0>        -0.0864
      9 Br1        -3.9939   -0.7207    1.2856 Br        1 <0>        -0.1360
     10 Br2        -2.3842    0.1176   -1.5799 Br        1 <0>        -0.1263
     11 Br3         3.1045   -0.6192    0.3251 Br        1 <0>        -0.1348
     12 Br4         1.1820    2.2132   -2.8520 Br        1 <0>        -0.1278
     13 H1         -0.5289    1.8773    0.9072 H         1 <0>         0.0765
     14 H2         -0.5459    1.8868   -0.8726 H         1 <0>         0.0933
     15 H3          1.4019    3.1452    0.0056 H         1 <0>         0.0850
     16 H4          1.9439    1.6943    0.8826 H         1 <0>         0.0911
     17 H5          3.1554    1.9392   -1.2670 H         1 <0>         0.1170
     18 H6          2.6638   -0.3194   -2.1644 H         1 <0>         0.1192
     19 H7          0.1910   -0.1364   -2.1398 H         1 <0>         0.1067
     20 H8          0.7330   -1.5874   -1.2628 H         1 <0>         0.0855
     21 H9          0.5293   -0.3651    0.8851 H         1 <0>         0.1026
     22 H10        -1.4185   -1.6235    0.0069 H         1 <0>         0.1177
     23 H11        -1.6223   -0.4013    2.1547 H         1 <0>         0.1152
     24 H12        -2.1642    1.0497    1.2777 H         1 <0>         0.1139
@<TRIPOS>BOND
     1    1    6 1
     2    1    2 1
     3    1   13 1
     4    1   14 1
     5    2    3 1
     6    2   15 1
     7    2   16 1
     8    3    4 1
     9    3   12 1
    10    3   17 1
    11    4    5 1
    12    4   11 1
    13    4   18 1
    14    5    6 1
    15    5   19 1
    16    5   20 1
    17    6    7 1
    18    6   21 1
    19    7    8 1
    20    7   10 1
    21    7   22 1
    22    8    9 1
    23    8   23 1
    24    8   24 1
@<TRIPOS>MOLECULE
CHEMBL375107__10
   24    24     0     0     0
SMALL
USER_CHARGES

@<TRIPOS>ATOM
      1 C1         -0.0187    1.5258    0.0104 C.3       1 <0>        -0.1305
      2 C2          1.4167    2.0553   -0.0004 C.3       1 <0>        -0.1107
      3 C3          2.1567    1.5485    1.2391 C.3       1 <0>        -0.0479
      4 C4          2.1775    0.0187    1.2307 C.3       1 <0>        -0.0444
      5 C5          0.7421   -0.5109    1.2415 C.3       1 <0>        -0.1165
      6 C6          0.0021   -0.0041    0.0020 C.3       1 <0>        -0.0835
      7 C7         -1.4333   -0.5336    0.0129 C.3       1 <0>        -0.0490
      8 C8         -2.1352   -0.1312   -1.2857 C.3       1 <0>        -0.0875
      9 Br1        -3.9796   -0.8117   -1.2717 Br        1 <0>        -0.1333
     10 Br2        -2.4015    0.2288    1.5447 Br        1 <0>        -0.1256
     11 Br3         3.1283   -0.6326    2.8234 Br        1 <0>        -0.1309
     12 Br4         4.0011    2.2290    1.2251 Br        1 <0>        -0.1355
     13 H1         -0.5289    1.8773    0.9072 H         1 <0>         0.0865
     14 H2         -0.5459    1.8868   -0.8726 H         1 <0>         0.0804
     15 H3          1.9269    1.7038   -0.8972 H         1 <0>         0.0798
     16 H4          1.4019    3.1452    0.0056 H         1 <0>         0.0878
     17 H5          1.6465    1.9000    2.1359 H         1 <0>         0.1170
     18 H6          2.6876   -0.3328    0.3339 H         1 <0>         0.1159
     19 H7          0.7568   -1.6008    1.2356 H         1 <0>         0.0883
     20 H8          0.2319   -0.1594    2.1383 H         1 <0>         0.0923
     21 H9          0.5123   -0.3556   -0.8948 H         1 <0>         0.0983
     22 H10        -1.4190   -1.6203    0.0965 H         1 <0>         0.1196
     23 H11        -2.1495    0.9555   -1.3693 H         1 <0>         0.1136
     24 H12        -1.5984   -0.5539   -2.1349 H         1 <0>         0.1159
@<TRIPOS>BOND
     1    1    6 1
     2    1    2 1
     3    1   13 1
     4    1   14 1
     5    2    3 1
     6    2   15 1
     7    2   16 1
     8    3    4 1
     9    3   12 1
    10    3   17 1
    11    4    5 1
    12    4   11 1
    13    4   18 1
    14    5    6 1
    15    5   19 1
    16    5   20 1
    17    6    7 1
    18    6   21 1
    19    7    8 1
    20    7   10 1
    21    7   22 1
    22    8    9 1
    23    8   23 1
    24    8   24 1
@<TRIPOS>MOLECULE
CHEMBL375107__11
   24    24     0     0     0
SMALL
USER_CHARGES

@<TRIPOS>ATOM
      1 C1         -0.0187    1.5258    0.0104 C.3       1 <0>        -0.1243
      2 C2          1.4167    2.0553   -0.0004 C.3       1 <0>        -0.1109
      3 C3          2.1567    1.5485    1.2391 C.3       1 <0>        -0.0480
      4 C4          2.1775    0.0187    1.2307 C.3       1 <0>        -0.0442
      5 C5          0.7421   -0.5109    1.2415 C.3       1 <0>        -0.1235
      6 C6          0.0021   -0.0041    0.0020 C.3       1 <0>        -0.0834
      7 C7         -1.4333   -0.5336    0.0129 C.3       1 <0>        -0.0484
      8 C8         -1.4126   -2.0635    0.0045 C.3       1 <0>        -0.0901
      9 Br1        -3.2570   -2.7440    0.0184 Br        1 <0>        -0.1330
     10 Br2        -2.3535    0.1004    1.6304 Br        1 <0>        -0.1259
     11 Br3         3.1283   -0.6326    2.8234 Br        1 <0>        -0.1312
     12 Br4         4.0011    2.2290    1.2251 Br        1 <0>        -0.1354
     13 H1         -0.5289    1.8773    0.9072 H         1 <0>         0.0839
     14 H2         -0.5459    1.8868   -0.8726 H         1 <0>         0.0817
     15 H3          1.9269    1.7038   -0.8972 H         1 <0>         0.0800
     16 H4          1.4019    3.1452    0.0056 H         1 <0>         0.0881
     17 H5          1.6465    1.9000    2.1359 H         1 <0>         0.1170
     18 H6          2.6876   -0.3328    0.3339 H         1 <0>         0.1158
     19 H7          0.7568   -1.6008    1.2356 H         1 <0>         0.0874
     20 H8          0.2319   -0.1594    2.1383 H         1 <0>         0.0949
     21 H9          0.5123   -0.3556   -0.8948 H         1 <0>         0.0985
     22 H10        -1.9605   -0.1726   -0.8702 H         1 <0>         0.1210
     23 H11        -0.9024   -2.4150   -0.8923 H         1 <0>         0.1162
     24 H12        -0.8854   -2.4246    0.8875 H         1 <0>         0.1137
@<TRIPOS>BOND
     1    1    6 1
     2    1    2 1
     3    1   13 1
     4    1   14 1
     5    2    3 1
     6    2   15 1
     7    2   16 1
     8    3    4 1
     9    3   12 1
    10    3   17 1
    11    4    5 1
    12    4   11 1
    13    4   18 1
    14    5    6 1
    15    5   19 1
    16    5   20 1
    17    6    7 1
    18    6   21 1
    19    7    8 1
    20    7   10 1
    21    7   22 1
    22    8    9 1
    23    8   23 1
    24    8   24 1
@<TRIPOS>MOLECULE
CHEMBL375107__12
   24    24     0     0     0
SMALL
USER_CHARGES

@<TRIPOS>ATOM
      1 C1         -0.0187    1.5258    0.0104 C.3       1 <0>        -0.1347
      2 C2          1.4167    2.0553   -0.0004 C.3       1 <0>        -0.1118
      3 C3          2.1328    1.5619   -1.2592 C.3       1 <0>        -0.0514
      4 C4          2.1536    0.0321   -1.2676 C.3       1 <0>        -0.0451
      5 C5          0.7182   -0.4975   -1.2568 C.3       1 <0>        -0.1359
      6 C6          0.0021   -0.0041    0.0020 C.3       1 <0>        -0.0795
      7 C7         -1.4333   -0.5336    0.0129 C.3       1 <0>        -0.0495
      8 C8         -1.4133   -2.0590    0.1302 C.3       1 <0>        -0.0883
      9 Br1        -3.2577   -2.7395    0.1442 Br        1 <0>        -0.1339
     10 Br2        -2.3352   -0.0165   -1.6557 Br        1 <0>        -0.1219
     11 Br3         3.0738   -0.6019   -2.8852 Br        1 <0>        -0.1325
     12 Br4         1.1820    2.2132   -2.8520 Br        1 <0>        -0.1253
     13 H1         -0.5289    1.8773    0.9072 H         1 <0>         0.0780
     14 H2         -0.5459    1.8868   -0.8726 H         1 <0>         0.0927
     15 H3          1.4019    3.1452    0.0056 H         1 <0>         0.0874
     16 H4          1.9439    1.6943    0.8826 H         1 <0>         0.0836
     17 H5          3.1554    1.9392   -1.2670 H         1 <0>         0.1159
     18 H6          2.6808   -0.3290   -0.3846 H         1 <0>         0.1194
     19 H7          0.1910   -0.1364   -2.1398 H         1 <0>         0.1077
     20 H8          0.7330   -1.5874   -1.2628 H         1 <0>         0.0833
     21 H9          0.5293   -0.3651    0.8851 H         1 <0>         0.0947
     22 H10        -1.9701   -0.1109    0.8621 H         1 <0>         0.1196
     23 H11        -0.8764   -2.4817   -0.7190 H         1 <0>         0.1126
     24 H12        -0.9132   -2.3457    1.0553 H         1 <0>         0.1150
@<TRIPOS>BOND
     1    1    6 1
     2    1    2 1
     3    1   13 1
     4    1   14 1
     5    2    3 1
     6    2   15 1
     7    2   16 1
     8    3    4 1
     9    3   12 1
    10    3   17 1
    11    4    5 1
    12    4   11 1
    13    4   18 1
    14    5    6 1
    15    5   19 1
    16    5   20 1
    17    6    7 1
    18    6   21 1
    19    7    8 1
    20    7   10 1
    21    7   22 1
    22    8    9 1
    23    8   23 1
    24    8   24 1
@<TRIPOS>MOLECULE
CHEMBL375107__13
   24    24     0     0     0
SMALL
USER_CHARGES

@<TRIPOS>ATOM
      1 C1         -0.0187    1.5258    0.0104 C.3       1 <0>        -0.1416
      2 C2          1.4167    2.0553   -0.0004 C.3       1 <0>        -0.1117
      3 C3          2.1328    1.5619   -1.2592 C.3       1 <0>        -0.0513
      4 C4          2.1536    0.0321   -1.2676 C.3       1 <0>        -0.0451
      5 C5          0.7182   -0.4975   -1.2568 C.3       1 <0>        -0.1298
      6 C6          0.0021   -0.0041    0.0020 C.3       1 <0>        -0.0793
      7 C7         -1.4333   -0.5336    0.0129 C.3       1 <0>        -0.0499
      8 C8         -2.1494   -0.0402    1.2717 C.3       1 <0>        -0.0869
      9 Br1        -3.9939   -0.7207    1.2856 Br        1 <0>        -0.1346
     10 Br2        -2.3842    0.1176   -1.5799 Br        1 <0>        -0.1220
     11 Br3         3.0738   -0.6019   -2.8852 Br        1 <0>        -0.1323
     12 Br4         1.1820    2.2132   -2.8520 Br        1 <0>        -0.1253
     13 H1         -0.5289    1.8773    0.9072 H         1 <0>         0.0772
     14 H2         -0.5459    1.8868   -0.8726 H         1 <0>         0.0955
     15 H3          1.4019    3.1452    0.0056 H         1 <0>         0.0871
     16 H4          1.9439    1.6943    0.8826 H         1 <0>         0.0835
     17 H5          3.1554    1.9392   -1.2670 H         1 <0>         0.1158
     18 H6          2.6808   -0.3290   -0.3846 H         1 <0>         0.1196
     19 H7          0.1910   -0.1364   -2.1398 H         1 <0>         0.1048
     20 H8          0.7330   -1.5874   -1.2628 H         1 <0>         0.0846
     21 H9          0.5293   -0.3651    0.8851 H         1 <0>         0.0948
     22 H10        -1.4185   -1.6235    0.0069 H         1 <0>         0.1181
     23 H11        -1.6223   -0.4013    2.1547 H         1 <0>         0.1148
     24 H12        -2.1642    1.0497    1.2777 H         1 <0>         0.1140
@<TRIPOS>BOND
     1    1    6 1
     2    1    2 1
     3    1   13 1
     4    1   14 1
     5    2    3 1
     6    2   15 1
     7    2   16 1
     8    3    4 1
     9    3   12 1
    10    3   17 1
    11    4    5 1
    12    4   11 1
    13    4   18 1
    14    5    6 1
    15    5   19 1
    16    5   20 1
    17    6    7 1
    18    6   21 1
    19    7    8 1
    20    7   10 1
    21    7   22 1
    22    8    9 1
    23    8   23 1
    24    8   24 1
@<TRIPOS>MOLECULE
CHEMBL375107__14
   24    24     0     0     0
SMALL
USER_CHARGES

@<TRIPOS>ATOM
      1 C1         -0.0187    1.5258    0.0104 C.3       1 <0>        -0.1261
      2 C2          1.4167    2.0553   -0.0004 C.3       1 <0>        -0.1210
      3 C3          2.1567    1.5485    1.2391 C.3       1 <0>        -0.0484
      4 C4          2.1775    0.0187    1.2307 C.3       1 <0>        -0.0445
      5 C5          0.7421   -0.5109    1.2415 C.3       1 <0>        -0.1161
      6 C6          0.0021   -0.0041    0.0020 C.3       1 <0>        -0.0927
      7 C7         -1.4333   -0.5336    0.0129 C.3       1 <0>        -0.0464
      8 C8         -2.1352   -0.1312   -1.2857 C.3       1 <0>        -0.0869
      9 Br1        -3.9796   -0.8117   -1.2717 Br        1 <0>        -0.1349
     10 Br2        -2.4015    0.2288    1.5447 Br        1 <0>        -0.1300
     11 Br3         3.0977   -0.6153   -0.3868 Br        1 <0>        -0.1310
     12 Br4         4.0011    2.2290    1.2251 Br        1 <0>        -0.1360
     13 H1         -0.5289    1.8773    0.9072 H         1 <0>         0.0841
     14 H2         -0.5459    1.8868   -0.8726 H         1 <0>         0.0791
     15 H3          1.9269    1.7038   -0.8972 H         1 <0>         0.0882
     16 H4          1.4019    3.1452    0.0056 H         1 <0>         0.0848
     17 H5          1.6465    1.9000    2.1359 H         1 <0>         0.1215
     18 H6          2.7046   -0.3424    2.1137 H         1 <0>         0.1185
     19 H7          0.7568   -1.6008    1.2356 H         1 <0>         0.0883
     20 H8          0.2319   -0.1594    2.1383 H         1 <0>         0.0954
     21 H9          0.5123   -0.3556   -0.8948 H         1 <0>         0.1057
     22 H10        -1.4190   -1.6203    0.0965 H         1 <0>         0.1188
     23 H11        -2.1495    0.9555   -1.3693 H         1 <0>         0.1134
     24 H12        -1.5984   -0.5539   -2.1349 H         1 <0>         0.1162
@<TRIPOS>BOND
     1    1    6 1
     2    1    2 1
     3    1   13 1
     4    1   14 1
     5    2    3 1
     6    2   15 1
     7    2   16 1
     8    3    4 1
     9    3   12 1
    10    3   17 1
    11    4    5 1
    12    4   11 1
    13    4   18 1
    14    5    6 1
    15    5   19 1
    16    5   20 1
    17    6    7 1
    18    6   21 1
    19    7    8 1
    20    7   10 1
    21    7   22 1
    22    8    9 1
    23    8   23 1
    24    8   24 1
@<TRIPOS>MOLECULE
CHEMBL375107__15
   24    24     0     0     0
SMALL
USER_CHARGES

@<TRIPOS>ATOM
      1 C1         -0.0187    1.5258    0.0104 C.3       1 <0>        -0.1200
      2 C2          1.4167    2.0553   -0.0004 C.3       1 <0>        -0.1212
      3 C3          2.1567    1.5485    1.2391 C.3       1 <0>        -0.0485
      4 C4          2.1775    0.0187    1.2307 C.3       1 <0>        -0.0443
      5 C5          0.7421   -0.5109    1.2415 C.3       1 <0>        -0.1230
      6 C6          0.0021   -0.0041    0.0020 C.3       1 <0>        -0.0924
      7 C7         -1.4333   -0.5336    0.0129 C.3       1 <0>        -0.0461
      8 C8         -1.4126   -2.0635    0.0045 C.3       1 <0>        -0.0884
      9 Br1        -3.2570   -2.7440    0.0184 Br        1 <0>        -0.1347
     10 Br2        -2.3535    0.1004    1.6304 Br        1 <0>        -0.1302
     11 Br3         3.0977   -0.6153   -0.3868 Br        1 <0>        -0.1311
     12 Br4         4.0011    2.2290    1.2251 Br        1 <0>        -0.1360
     13 H1         -0.5289    1.8773    0.9072 H         1 <0>         0.0815
     14 H2         -0.5459    1.8868   -0.8726 H         1 <0>         0.0804
     15 H3          1.9269    1.7038   -0.8972 H         1 <0>         0.0884
     16 H4          1.4019    3.1452    0.0056 H         1 <0>         0.0851
     17 H5          1.6465    1.9000    2.1359 H         1 <0>         0.1215
     18 H6          2.7046   -0.3424    2.1137 H         1 <0>         0.1182
     19 H7          0.7568   -1.6008    1.2356 H         1 <0>         0.0874
     20 H8          0.2319   -0.1594    2.1383 H         1 <0>         0.0978
     21 H9          0.5123   -0.3556   -0.8948 H         1 <0>         0.1059
     22 H10        -1.9605   -0.1726   -0.8702 H         1 <0>         0.1201
     23 H11        -0.9024   -2.4150   -0.8923 H         1 <0>         0.1169
     24 H12        -0.8854   -2.4246    0.8875 H         1 <0>         0.1126
@<TRIPOS>BOND
     1    1    6 1
     2    1    2 1
     3    1   13 1
     4    1   14 1
     5    2    3 1
     6    2   15 1
     7    2   16 1
     8    3    4 1
     9    3   12 1
    10    3   17 1
    11    4    5 1
    12    4   11 1
    13    4   18 1
    14    5    6 1
    15    5   19 1
    16    5   20 1
    17    6    7 1
    18    6   21 1
    19    7    8 1
    20    7   10 1
    21    7   22 1
    22    8    9 1
    23    8   23 1
    24    8   24 1
@<TRIPOS>MOLECULE
CHEMBL234185
   35    37     0     0     0
SMALL
USER_CHARGES

@<TRIPOS>ATOM
      1 C1         -0.0184    1.5028    0.0103 C.3       1 <0>        -0.1247
      2 C2          0.0021   -0.0041    0.0020 C.ar      1 <0>        -0.0659
      3 C3          0.0057   -0.6925   -1.2071 C.ar      1 <0>         0.2024
      4 C4          0.0246   -2.0842   -1.2197 C.ar      1 <0>        -0.0967
      5 C5          0.0392   -2.7853   -0.0353 C.ar      1 <0>        -0.0578
      6 C6          0.0356   -2.0982    1.1822 C.ar      1 <0>        -0.0028
      7 C7          0.0228   -0.6987    1.1918 C.ar      1 <0>         0.0039
      8 Cl1         0.0254    0.1605    2.7003 Cl        1 <0>        -0.0362
      9 C8          0.0504   -2.8244    2.4163 C.1       1 <0>         0.2453
     10 N1          0.0621   -3.4005    3.3954 N.1       1 <0>        -0.3866
     11 N2         -0.0100    0.0124   -2.4072 N.pl3     1 <0>        -0.9605
     12 C9         -1.1856    0.3686   -3.2253 C.3       1 <0>         0.0756
     13 C10        -0.8243    1.5622   -4.1129 C.3       1 <0>         0.0654
     14 H1         -0.9534    2.5063   -3.5836 H         1 <0>         0.1187
     15 C11        -1.6447    1.5301   -5.4231 C.3       1 <0>         0.1124
     16 H2         -2.5920    2.0563   -5.3046 H         1 <0>         0.0882
     17 C12        -0.7013    2.2917   -6.3948 C.3       1 <0>        -0.1638
     18 C13         0.7062    1.8540   -5.9292 C.3       1 <0>         0.1760
     19 N3          0.5815    1.3686   -4.5493 N.pl3     1 <0>        -1.0087
     20 S1          1.2997    0.6474   -3.2339 S.o2      1 <0>         2.7956
     21 O1          2.0638   -0.4475   -3.7203 O.2       1 <0>        -0.9611
     22 O2          1.8471    1.6818   -2.4279 O.2       1 <0>        -0.9518
     23 O3         -1.8586    0.1870   -5.8617 O.3       1 <0>        -0.5536
     24 H3          1.0042    1.8801    0.0026 H         1 <0>         0.0951
     25 H4         -0.5455    1.8639   -0.8728 H         1 <0>         0.0739
     26 H5         -0.5286    1.8543    0.9071 H         1 <0>         0.0806
     27 H6          0.0274   -2.6148   -2.1604 H         1 <0>         0.1517
     28 H7          0.0531   -3.8652   -0.0465 H         1 <0>         0.1530
     29 H8         -1.4684   -0.4794   -3.8490 H         1 <0>         0.1104
     30 H9         -2.0180    0.6352   -2.5739 H         1 <0>         0.1049
     31 H10        -0.8794    1.9839   -7.4251 H         1 <0>         0.0940
     32 H11        -0.8252    3.3693   -6.2866 H         1 <0>         0.0915
     33 H12         1.0811    1.0613   -6.5767 H         1 <0>         0.0729
     34 H13         1.3857    2.7060   -5.9511 H         1 <0>         0.0700
     35 H14        -2.3688    0.1171   -6.6802 H         1 <0>         0.3887
@<TRIPOS>BOND
     1    1    2 1
     2    1   24 1
     3    1   25 1
     4    1   26 1
     5    2    7 ar
     6    2    3 ar
     7    3    4 ar
     8    3   11 1
     9    4    5 ar
    10    4   27 1
    11    5    6 ar
    12    5   28 1
    13    6    7 ar
    14    6    9 1
    15    7    8 1
    16    9   10 3
    17   11   20 1
    18   11   12 1
    19   12   13 1
    20   12   29 1
    21   12   30 1
    22   13   14 1
    23   13   19 1
    24   13   15 1
    25   15   16 1
    26   15   17 1
    27   15   23 1
    28   17   18 1
    29   17   31 1
    30   17   32 1
    31   18   19 1
    32   18   33 1
    33   18   34 1
    34   19   20 1
    35   20   21 2
    36   20   22 2
    37   23   35 1
@<TRIPOS>MOLECULE
CHEMBL180681
   37    40     0     0     0
SMALL
USER_CHARGES

@<TRIPOS>ATOM
      1 C1          2.4129   -1.2982    1.6191 C.3       1 <0>        -0.1272
      2 C2          1.1672   -1.3452    0.7723 C.ar      1 <0>        -0.0426
      3 C3          1.1729   -2.0321   -0.4261 C.ar      1 <0>        -0.0963
      4 C4          0.0251   -2.0755   -1.2053 C.ar      1 <0>         0.1289
      5 C5         -1.1263   -1.4279   -0.7778 C.ar      1 <0>        -0.1017
      6 C6         -1.1269   -0.7425    0.4211 C.ar      1 <0>        -0.0729
      7 C7          0.0172   -0.7053    1.1986 C.ar      1 <0>        -0.0861
      8 Br1         0.0108    0.2281    2.8432 Br        1 <0>        -0.0350
      9 N1          0.0284   -2.7717   -2.4225 N.am      1 <0>        -0.5316
     10 C8         -0.0788   -2.1589   -3.6080 C.2       1 <0>         0.5345
     11 O1         -0.1878   -0.9628   -3.7729 O.2       1 <0>        -0.4614
     12 C9         -0.0413   -3.1957   -4.7095 C.3       1 <0>        -0.1119
     13 H1         -0.9573   -3.1787   -5.3001 H         1 <0>         0.1344
     14 C10         0.1085   -4.5278   -3.9471 C.3       1 <0>        -0.1113
     15 H2         -0.7301   -5.1947   -4.1472 H         1 <0>         0.1348
     16 C11         0.1447   -4.1034   -2.4951 C.2       1 <0>         0.5350
     17 O2          0.2579   -4.8511   -1.5476 O.2       1 <0>        -0.4614
     18 C12         1.4413   -5.1837   -4.3283 C.3       1 <0>        -0.0459
     19 C13         2.5793   -4.2333   -3.9322 C.3       1 <0>        -0.1221
     20 C14         2.4305   -2.9121   -4.6895 C.3       1 <0>        -0.1241
     21 C15         1.1903   -2.9533   -5.5904 C.3       1 <0>        -0.0442
     22 C16         1.3623   -4.1624   -6.4975 C.2       1 <0>        -0.1517
     23 C17         1.4712   -5.3370   -5.8415 C.2       1 <0>        -0.1532
     24 H3          2.4163   -2.1431    2.3077 H         1 <0>         0.0836
     25 H4          3.2915   -1.3500    0.9760 H         1 <0>         0.0750
     26 H5          2.4320   -0.3674    2.1860 H         1 <0>         0.0816
     27 H6          2.0698   -2.5347   -0.7567 H         1 <0>         0.1344
     28 H7         -2.0206   -1.4599   -1.3825 H         1 <0>         0.1359
     29 H8         -2.0221   -0.2384    0.7539 H         1 <0>         0.1439
     30 H9          1.5476   -6.1525   -3.8403 H         1 <0>         0.1014
     31 H10         2.5373   -4.0437   -2.8596 H         1 <0>         0.0624
     32 H11         3.5371   -4.6895   -4.1827 H         1 <0>         0.0812
     33 H12         2.3182   -2.0955   -3.9763 H         1 <0>         0.0619
     34 H13         3.3174   -2.7415   -5.2998 H         1 <0>         0.0811
     35 H14         1.0756   -2.0374   -6.1699 H         1 <0>         0.1046
     36 H15         1.3639   -4.0956   -7.5755 H         1 <0>         0.1314
     37 H16         1.5876   -6.2902   -6.3358 H         1 <0>         0.1346
@<TRIPOS>BOND
     1    1    2 1
     2    1   24 1
     3    1   25 1
     4    1   26 1
     5    2    7 ar
     6    2    3 ar
     7    3    4 ar
     8    3   27 1
     9    4    5 ar
    10    4    9 1
    11    5    6 ar
    12    5   28 1
    13    6    7 ar
    14    6   29 1
    15    7    8 1
    16    9   16 am
    17    9   10 am
    18   10   11 2
    19   10   12 1
    20   12   13 1
    21   12   21 1
    22   12   14 1
    23   14   15 1
    24   14   16 1
    25   14   18 1
    26   16   17 2
    27   18   23 1
    28   18   19 1
    29   18   30 1
    30   19   20 1
    31   19   31 1
    32   19   32 1
    33   20   21 1
    34   20   33 1
    35   20   34 1
    36   21   22 1
    37   21   35 1
    38   22   23 2
    39   22   36 1
    40   23   37 1
@<TRIPOS>MOLECULE
CHEMBL180681__1
   37    40     0     0     0
SMALL
USER_CHARGES

@<TRIPOS>ATOM
      1 C1          2.4130   -1.2980    1.6190 C.3       1 <0>        -0.1268
      2 C2          1.1672   -1.3451    0.7723 C.ar      1 <0>        -0.0432
      3 C3          1.1729   -2.0321   -0.4262 C.ar      1 <0>        -0.0951
      4 C4          0.0251   -2.0755   -1.2053 C.ar      1 <0>         0.1304
      5 C5         -1.1263   -1.4279   -0.7777 C.ar      1 <0>        -0.1024
      6 C6         -1.1269   -0.7426    0.4211 C.ar      1 <0>        -0.0734
      7 C7          0.0172   -0.7053    1.1986 C.ar      1 <0>        -0.0865
      8 Br1         0.0108    0.2281    2.8432 Br        1 <0>        -0.0356
      9 N1          0.0284   -2.7717   -2.4225 N.am      1 <0>        -0.5293
     10 C8         -0.0788   -2.1589   -3.6080 C.2       1 <0>         0.5344
     11 O1         -0.1887   -0.9629   -3.7729 O.2       1 <0>        -0.4629
     12 C9         -0.0404   -3.1957   -4.7094 C.3       1 <0>        -0.1127
     13 H1         -0.9555   -3.1781   -5.3014 H         1 <0>         0.1354
     14 C10         0.1076   -4.5280   -3.9471 C.3       1 <0>        -0.1118
     15 H2         -0.7323   -5.1935   -4.1468 H         1 <0>         0.1362
     16 C11         0.1447   -4.1035   -2.4951 C.2       1 <0>         0.5352
     17 O2          0.2590   -4.8510   -1.5477 O.2       1 <0>        -0.4627
     18 C12         1.4390   -5.1862   -4.3288 C.3       1 <0>        -0.0431
     19 C13         1.4303   -5.4557   -5.8396 C.3       1 <0>        -0.1119
     20 C14         1.2846   -4.1332   -6.5951 C.3       1 <0>        -0.1122
     21 C15         1.1928   -2.9539   -5.5883 C.3       1 <0>        -0.0472
     22 C16         2.4219   -2.9980   -4.6929 C.2       1 <0>        -0.1649
     23 C17         2.5523   -4.1898   -4.0422 C.2       1 <0>        -0.1667
     24 H3          2.4164   -2.1430    2.3076 H         1 <0>         0.0833
     25 H4          3.2915   -1.3498    0.9759 H         1 <0>         0.0747
     26 H5          2.4320   -0.3673    2.1859 H         1 <0>         0.0814
     27 H6          2.0699   -2.5346   -0.7568 H         1 <0>         0.1346
     28 H7         -2.0206   -1.4600   -1.3824 H         1 <0>         0.1356
     29 H8         -2.0222   -0.2385    0.7540 H         1 <0>         0.1437
     30 H9          1.5900   -6.1062   -3.7641 H         1 <0>         0.1012
     31 H10         2.3646   -5.9375   -6.1278 H         1 <0>         0.0760
     32 H11         0.5938   -6.1092   -6.0870 H         1 <0>         0.0755
     33 H12         2.1502   -3.9870   -7.2414 H         1 <0>         0.0748
     34 H13         0.3793   -4.1593   -7.2016 H         1 <0>         0.0750
     35 H14         1.1154   -1.9981   -6.1066 H         1 <0>         0.1015
     36 H15         3.1132   -2.1736   -4.5989 H         1 <0>         0.1322
     37 H16         3.3700   -4.3967   -3.3677 H         1 <0>         0.1273
@<TRIPOS>BOND
     1    1    2 1
     2    1   24 1
     3    1   25 1
     4    1   26 1
     5    2    7 ar
     6    2    3 ar
     7    3    4 ar
     8    3   27 1
     9    4    5 ar
    10    4    9 1
    11    5    6 ar
    12    5   28 1
    13    6    7 ar
    14    6   29 1
    15    7    8 1
    16    9   16 am
    17    9   10 am
    18   10   11 2
    19   10   12 1
    20   12   13 1
    21   12   21 1
    22   12   14 1
    23   14   15 1
    24   14   16 1
    25   14   18 1
    26   16   17 2
    27   18   23 1
    28   18   19 1
    29   18   30 1
    30   19   20 1
    31   19   31 1
    32   19   32 1
    33   20   21 1
    34   20   33 1
    35   20   34 1
    36   21   22 1
    37   21   35 1
    38   22   23 2
    39   22   36 1
    40   23   37 1
@<TRIPOS>MOLECULE
CHEMBL1210841
   51    55     0     0     0
SMALL
USER_CHARGES

@<TRIPOS>ATOM
      1 C1         -0.1419    1.6256   -0.6368 C.3       1 <0>        -0.1304
      2 C2         -0.0954    0.1245   -0.3443 C.3       1 <0>         0.1010
      3 C3          0.7568   -0.6514   -1.3770 C.3       1 <0>        -0.1492
      4 H1          0.1828   -0.9822   -2.2426 H         1 <0>         0.1645
      5 C4          1.3534   -1.8249   -0.5488 C.3       1 <0>        -0.1466
      6 H2          1.1230   -2.8064   -0.9632 H         1 <0>         0.1646
      7 C5          2.8343   -1.5210   -0.5324 C.2       1 <0>         0.5491
      8 O1          3.6811   -2.1936    0.0154 O.2       1 <0>        -0.4372
      9 N1          3.0653   -0.3945   -1.2162 N.am      1 <0>        -0.5314
     10 C6          1.9607    0.1845   -1.7480 C.2       1 <0>         0.5494
     11 O2          1.9310    1.2006   -2.4085 O.2       1 <0>        -0.4281
     12 C7          4.3466    0.1434   -1.3773 C.ar      1 <0>         0.1329
     13 C8          5.2902   -0.5307   -2.1446 C.ar      1 <0>        -0.0640
     14 C9          6.5527   -0.0047   -2.3052 C.ar      1 <0>        -0.0559
     15 C10         6.8849    1.2086   -1.6961 C.ar      1 <0>         0.0448
     16 C11         5.9338    1.8833   -0.9262 C.ar      1 <0>        -0.1304
     17 C12         4.6714    1.3532   -0.7746 C.ar      1 <0>        -0.0501
     18 C13         6.2870    3.1916   -0.2670 C.3       1 <0>         0.5071
     19 F1          5.1803    3.6698    0.4428 F         1 <0>        -0.1672
     20 F2          7.3567    2.9964    0.6132 F         1 <0>        -0.1670
     21 F3          6.6518    4.1231   -1.2450 F         1 <0>        -0.1668
     22 C14         8.1968    1.7588   -1.8602 C.1       1 <0>         0.2251
     23 N2          9.2375    2.1952   -1.9904 N.1       1 <0>        -0.3602
     24 C15         0.7613   -1.6087    0.8644 C.3       1 <0>         0.1001
     25 O3          0.5325   -0.1715    0.9262 O.3       1 <0>        -0.3189
     26 C16        -0.5870   -2.2992    0.9069 C.2       1 <0>         0.5139
     27 O4         -0.7144   -3.3672    1.4660 O.2       1 <0>        -0.4556
     28 N3         -1.6443   -1.7058    0.3126 N.am      1 <0>        -0.5659
     29 C17        -1.4768   -0.4977   -0.3081 C.2       1 <0>         0.5117
     30 O5         -2.4096    0.0404   -0.8648 O.2       1 <0>        -0.4504
     31 C18        -2.9665   -2.3341    0.3715 C.3       1 <0>         0.1284
     32 C19        -3.7118   -1.8385    1.6124 C.3       1 <0>        -0.1788
     33 C20        -4.0640   -2.8716    2.6845 C.3       1 <0>        -0.1700
     34 C21        -5.1625   -2.2900    1.7924 C.3       1 <0>        -0.1660
     35 C22         1.7060   -2.0814    1.9712 C.3       1 <0>        -0.1278
     36 H3          0.8713    2.0273   -0.6371 H         1 <0>         0.0859
     37 H4         -0.5989    1.7917   -1.6123 H         1 <0>         0.1025
     38 H5         -0.7314    2.1272    0.1307 H         1 <0>         0.0869
     39 H6          5.0328   -1.4683   -2.6149 H         1 <0>         0.1529
     40 H7          7.2853   -0.5292   -2.9006 H         1 <0>         0.1608
     41 H8          3.9344    1.8761   -0.1831 H         1 <0>         0.1571
     42 H9         -3.5334   -2.0719   -0.5217 H         1 <0>         0.1032
     43 H10        -2.8522   -3.4168    0.4246 H         1 <0>         0.1027
     44 H11        -3.4521   -0.8341    1.9469 H         1 <0>         0.1056
     45 H12        -3.7647   -3.9044    2.5059 H         1 <0>         0.0999
     46 H13        -4.0359   -2.5470    3.7247 H         1 <0>         0.0959
     47 H14        -5.8572   -1.5829    2.2457 H         1 <0>         0.0993
     48 H15        -5.5859   -2.9402    1.0268 H         1 <0>         0.0990
     49 H16         2.6427   -1.5274    1.9104 H         1 <0>         0.0864
     50 H17         1.2433   -1.9074    2.9426 H         1 <0>         0.0857
     51 H18         1.9049   -3.1461    1.8489 H         1 <0>         0.1014
@<TRIPOS>BOND
     1    1    2 1
     2    1   36 1
     3    1   37 1
     4    1   38 1
     5    2   25 1
     6    2   29 1
     7    2    3 1
     8    3    4 1
     9    3   10 1
    10    3    5 1
    11    5    6 1
    12    5    7 1
    13    5   24 1
    14    7    8 2
    15    7    9 am
    16    9   10 am
    17    9   12 1
    18   10   11 2
    19   12   17 ar
    20   12   13 ar
    21   13   14 ar
    22   13   39 1
    23   14   15 ar
    24   14   40 1
    25   15   16 ar
    26   15   22 1
    27   16   17 ar
    28   16   18 1
    29   17   41 1
    30   18   19 1
    31   18   20 1
    32   18   21 1
    33   22   23 3
    34   24   25 1
    35   24   26 1
    36   24   35 1
    37   26   27 2
    38   26   28 am
    39   28   29 am
    40   28   31 1
    41   29   30 2
    42   31   32 1
    43   31   42 1
    44   31   43 1
    45   32   34 1
    46   32   33 1
    47   32   44 1
    48   33   34 1
    49   33   45 1
    50   33   46 1
    51   34   47 1
    52   34   48 1
    53   35   49 1
    54   35   50 1
    55   35   51 1
@<TRIPOS>MOLECULE
CHEMBL183882
   42    45     0     0     0
SMALL
USER_CHARGES

@<TRIPOS>ATOM
      1 C1          1.5407    1.4086   -1.1441 C.ar      1 <0>        -0.1047
      2 C2          1.1720    2.0859    0.0039 C.ar      1 <0>        -0.0602
      3 C3          0.8249    1.3834    1.1429 C.ar      1 <0>        -0.1713
      4 C4          0.8454    0.0021    1.1373 C.ar      1 <0>        -0.0526
      5 C5          1.2145   -0.6804   -0.0136 C.ar      1 <0>         0.1101
      6 C6          1.5627    0.0278   -1.1559 C.ar      1 <0>        -0.0689
      7 N1          1.2368   -2.0822   -0.0222 N.am      1 <0>        -0.5366
      8 C7          2.3697   -2.7928   -0.1306 C.2       1 <0>         0.5414
      9 O1          3.4933   -2.3376   -0.1363 O.2       1 <0>        -0.4598
     10 C8          2.0074   -4.2641   -0.2451 C.3       1 <0>        -0.1126
     11 H1          2.1284   -4.6192   -1.2685 H         1 <0>         0.1307
     12 C9          0.5374   -4.2854    0.1726 C.3       1 <0>        -0.1052
     13 H2         -0.0386   -4.8776   -0.5385 H         1 <0>         0.1259
     14 C10         0.1270   -2.8299    0.0830 C.2       1 <0>         0.5338
     15 O2         -1.0108   -2.4120    0.1003 O.2       1 <0>        -0.4581
     16 C11         0.3027   -4.8056    1.5829 C.3       1 <0>        -0.0686
     17 C12         0.8431   -3.8249    2.6245 C.3       1 <0>        -0.1262
     18 C13         2.2582   -4.2497    3.0240 C.3       1 <0>        -0.1267
     19 C14         3.2566   -4.1259    1.8913 C.3       1 <0>        -0.1418
     20 C15         2.8891   -5.0614    0.7184 C.3       1 <0>        -0.0642
     21 C16         2.2567   -6.3627    1.1257 C.3       1 <0>        -0.1068
     22 C17         0.9028   -6.1764    1.8305 C.3       1 <0>        -0.1110
     23 C18         0.4242    2.1252    2.3920 C.3       1 <0>         0.5107
     24 F1          0.4803    3.5028    2.1545 F         1 <0>        -0.1730
     25 F2         -0.8799    1.7664    2.7495 F         1 <0>        -0.1725
     26 F3          1.3003    1.7952    3.4317 F         1 <0>        -0.1737
     27 H3          1.8073    1.9600   -2.0337 H         1 <0>         0.1479
     28 H4          1.1556    3.1657    0.0108 H         1 <0>         0.1483
     29 H5          0.5748   -0.5461    2.0276 H         1 <0>         0.1368
     30 H6          1.8503   -0.5006   -2.0528 H         1 <0>         0.1377
     31 H7         -0.7736   -4.8784    1.7385 H         1 <0>         0.0843
     32 H8          0.8698   -2.8210    2.2007 H         1 <0>         0.0514
     33 H9          0.1980   -3.8341    3.5031 H         1 <0>         0.0764
     34 H10         2.5904   -3.6261    3.8540 H         1 <0>         0.0600
     35 H11         2.2322   -5.2874    3.3566 H         1 <0>         0.0769
     36 H12         3.2697   -3.0958    1.5352 H         1 <0>         0.0800
     37 H13         4.2486   -4.3917    2.2563 H         1 <0>         0.0720
     38 H14         3.8052   -5.3097    0.1824 H         1 <0>         0.0815
     39 H15         2.1016   -6.9705    0.2344 H         1 <0>         0.0687
     40 H16         2.9397   -6.8904    1.7914 H         1 <0>         0.0742
     41 H17         1.0388   -6.3136    2.9032 H         1 <0>         0.0784
     42 H18         0.2117   -6.9355    1.4643 H         1 <0>         0.0673
@<TRIPOS>BOND
     1    1    6 ar
     2    1    2 ar
     3    1   27 1
     4    2    3 ar
     5    2   28 1
     6    3    4 ar
     7    3   23 1
     8    4    5 ar
     9    4   29 1
    10    5    6 ar
    11    5    7 1
    12    6   30 1
    13    7   14 am
    14    7    8 am
    15    8    9 2
    16    8   10 1
    17   10   11 1
    18   10   20 1
    19   10   12 1
    20   12   13 1
    21   12   14 1
    22   12   16 1
    23   14   15 2
    24   16   22 1
    25   16   17 1
    26   16   31 1
    27   17   18 1
    28   17   32 1
    29   17   33 1
    30   18   19 1
    31   18   34 1
    32   18   35 1
    33   19   20 1
    34   19   36 1
    35   19   37 1
    36   20   21 1
    37   20   38 1
    38   21   22 1
    39   21   39 1
    40   21   40 1
    41   22   41 1
    42   22   42 1
    43   23   24 1
    44   23   25 1
    45   23   26 1
@<TRIPOS>MOLECULE
CHEMBL183882__1
   42    45     0     0     0
SMALL
USER_CHARGES

@<TRIPOS>ATOM
      1 C1          1.5401    1.4086   -1.1443 C.ar      1 <0>        -0.1048
      2 C2          1.1720    2.0859    0.0039 C.ar      1 <0>        -0.0607
      3 C3          0.8255    1.3834    1.1431 C.ar      1 <0>        -0.1715
      4 C4          0.8460    0.0021    1.1375 C.ar      1 <0>        -0.0525
      5 C5          1.2145   -0.6804   -0.0136 C.ar      1 <0>         0.1108
      6 C6          1.5621    0.0278   -1.1561 C.ar      1 <0>        -0.0695
      7 N1          1.2368   -2.0822   -0.0222 N.am      1 <0>        -0.5349
      8 C7          2.3695   -2.7928   -0.1306 C.2       1 <0>         0.5308
      9 O1          3.4931   -2.3375   -0.1353 O.2       1 <0>        -0.4600
     10 C8          2.0075   -4.2646   -0.2465 C.3       1 <0>        -0.1034
     11 H1          2.1135   -4.6030   -1.2772 H         1 <0>         0.1295
     12 C9          0.5377   -4.2852    0.1730 C.3       1 <0>        -0.1097
     13 H2         -0.0450   -4.8888   -0.5229 H         1 <0>         0.1295
     14 C10         0.1270   -2.8300    0.0830 C.2       1 <0>         0.5301
     15 O2         -1.0108   -2.4122    0.1001 O.2       1 <0>        -0.4595
     16 C11         0.3575   -4.8012    1.5971 C.3       1 <0>        -0.0674
     17 C12         0.2571   -6.3327    1.5334 C.3       1 <0>        -0.1067
     18 C13         1.6266   -6.9584    1.6941 C.3       1 <0>        -0.1291
     19 C14         2.5985   -6.5688    0.5779 C.3       1 <0>        -0.1107
     20 C15         2.9247   -5.0672    0.6732 C.3       1 <0>        -0.0703
     21 C16         2.8502   -4.6260    2.1227 C.3       1 <0>        -0.1209
     22 C17         1.4052   -4.2722    2.5368 C.3       1 <0>        -0.1143
     23 C18         0.4254    2.1252    2.3924 C.3       1 <0>         0.5108
     24 F1          0.4814    3.5028    2.1549 F         1 <0>        -0.1731
     25 F2         -0.8785    1.7664    2.7505 F         1 <0>        -0.1726
     26 F3          1.3020    1.7952    3.4316 F         1 <0>        -0.1738
     27 H3          1.8063    1.9600   -2.0340 H         1 <0>         0.1478
     28 H4          1.1556    3.1657    0.0108 H         1 <0>         0.1481
     29 H5          0.5758   -0.5461    2.0279 H         1 <0>         0.1366
     30 H6          1.8493   -0.5006   -2.0532 H         1 <0>         0.1373
     31 H7         -0.6077   -4.4377    1.9500 H         1 <0>         0.0788
     32 H8         -0.3961   -6.6847    2.3319 H         1 <0>         0.0710
     33 H9         -0.1631   -6.6268    0.5716 H         1 <0>         0.0702
     34 H10         2.0459   -6.6438    2.6498 H         1 <0>         0.0720
     35 H11         1.5178   -8.0430    1.7016 H         1 <0>         0.0621
     36 H12         3.5205   -7.1409    0.6819 H         1 <0>         0.0716
     37 H13         2.1450   -6.7810   -0.3903 H         1 <0>         0.0679
     38 H14         3.9515   -4.9157    0.3403 H         1 <0>         0.0856
     39 H15         3.2063   -5.4375    2.7573 H         1 <0>         0.0802
     40 H16         3.4989   -3.7611    2.2620 H         1 <0>         0.0646
     41 H17         1.3269   -3.1856    2.5722 H         1 <0>         0.0526
     42 H18         1.2120   -4.6669    3.5342 H         1 <0>         0.0777
@<TRIPOS>BOND
     1    1    6 ar
     2    1    2 ar
     3    1   27 1
     4    2    3 ar
     5    2   28 1
     6    3    4 ar
     7    3   23 1
     8    4    5 ar
     9    4   29 1
    10    5    6 ar
    11    5    7 1
    12    6   30 1
    13    7   14 am
    14    7    8 am
    15    8    9 2
    16    8   10 1
    17   10   11 1
    18   10   20 1
    19   10   12 1
    20   12   13 1
    21   12   14 1
    22   12   16 1
    23   14   15 2
    24   16   22 1
    25   16   17 1
    26   16   31 1
    27   17   18 1
    28   17   32 1
    29   17   33 1
    30   18   19 1
    31   18   34 1
    32   18   35 1
    33   19   20 1
    34   19   36 1
    35   19   37 1
    36   20   21 1
    37   20   38 1
    38   21   22 1
    39   21   39 1
    40   21   40 1
    41   22   41 1
    42   22   42 1
    43   23   24 1
    44   23   25 1
    45   23   26 1
@<TRIPOS>MOLECULE
CHEMBL224707
   89    93     0     0     0
SMALL
USER_CHARGES

@<TRIPOS>ATOM
      1 C1         -0.1018    1.8780    0.2146 C.3       1 <0>        -0.1326
      2 C2         -0.0937    0.3558    0.0606 C.3       1 <0>        -0.0565
      3 C3         -1.5139   -0.1722    0.1131 C.3       1 <0>        -0.1034
      4 C4         -2.1432    0.3380    1.4204 C.3       1 <0>        -0.1192
      5 C5         -1.3326   -0.0986    2.6359 C.3       1 <0>        -0.0675
      6 H1         -1.3688   -1.1854    2.7111 H         1 <0>         0.0673
      7 C6          0.1346    0.3420    2.5263 C.3       1 <0>        -0.0694
      8 H2          0.1943    1.4296    2.4860 H         1 <0>         0.0883
      9 C7          0.6843   -0.2871    1.2408 C.3       1 <0>        -0.0807
     10 H3          0.5422   -1.3677    1.2477 H         1 <0>         0.0755
     11 C8          2.1318    0.0753    0.8909 C.3       1 <0>        -0.1159
     12 C9          2.1889   -0.1630   -0.6428 C.3       1 <0>        -0.1601
     13 C10         0.7341   -0.0346   -1.1593 C.3       1 <0>         0.1098
     14 H4          0.3899   -0.9882   -1.5598 H         1 <0>         0.0551
     15 O1          0.6517    0.9825   -2.1597 O.3       1 <0>        -0.5601
     16 C11         0.8988   -0.1776    3.7458 C.3       1 <0>        -0.0778
     17 C12         0.2914    0.4243    5.0134 C.3       1 <0>        -0.1134
     18 C13        -1.1793    0.0158    5.1303 C.3       1 <0>        -0.0647
     19 H5         -1.2516   -1.0691    5.2079 H         1 <0>         0.0752
     20 C14        -1.9350    0.5044    3.9070 C.3       1 <0>        -0.0511
     21 C15        -3.4011    0.0739    4.0086 C.3       1 <0>        -0.1081
     22 C16        -4.0482    0.7368    5.2280 C.3       1 <0>        -0.1748
     23 C17        -3.2210    0.3970    6.4486 C.2       1 <0>         0.3646
     24 O2         -3.7351   -0.0695    7.4367 O.2       1 <0>        -0.4596
     25 C18        -1.7673    0.6611    6.3915 C.3       1 <0>        -0.1740
     26 C19        -1.8535    2.0306    3.8362 C.3       1 <0>        -0.1540
     27 C20         2.3694    0.2311    3.6398 C.3       1 <0>        -0.1323
     28 C21         3.1026   -0.1648    4.9230 C.3       1 <0>        -0.1231
     29 C22         4.5731    0.2440    4.8170 C.3       1 <0>        -0.1185
     30 C23         5.3063   -0.1519    6.1002 C.3       1 <0>        -0.1202
     31 C24         6.7769    0.2568    5.9942 C.3       1 <0>        -0.1193
     32 C25         7.5100   -0.1391    7.2774 C.3       1 <0>        -0.1052
     33 C26         8.9806    0.2697    7.1714 C.3       1 <0>        -0.1395
     34 C27         9.7027   -0.1203    8.4353 C.2       1 <0>         0.5134
     35 O3          9.1005   -0.6709    9.3326 O.2       1 <0>        -0.5398
     36 N1         11.0178    0.1429    8.5686 N.am      1 <0>        -0.6159
     37 C28        11.7596    0.8147    7.4929 C.3       1 <0>         0.1053
     38 C29        12.4719    2.0394    8.0755 C.3       1 <0>        -0.1370
     39 C30        13.3380    1.6053    9.2602 C.3       1 <0>        -0.1216
     40 C31        12.4494    0.9999   10.3492 C.3       1 <0>        -0.1357
     41 C32        11.7356   -0.2312    9.7948 C.3       1 <0>         0.1088
     42 H6          0.9232    2.2486    0.2153 H         1 <0>         0.0529
     43 H7         -0.6489    2.3242   -0.6159 H         1 <0>         0.0575
     44 H8         -0.5856    2.1456    1.1540 H         1 <0>         0.0612
     45 H9         -2.0798    0.2001   -0.7409 H         1 <0>         0.0646
     46 H10        -1.5049   -1.2621    0.1065 H         1 <0>         0.0610
     47 H11        -2.1873    1.4268    1.3936 H         1 <0>         0.0715
     48 H12        -3.1556   -0.0567    1.5065 H         1 <0>         0.0638
     49 H13         2.3357    1.1198    1.1268 H         1 <0>         0.0722
     50 H14         2.8300   -0.5817    1.4095 H         1 <0>         0.0763
     51 H15         2.8212    0.5889   -1.1150 H         1 <0>         0.0712
     52 H16         2.5736   -1.1611   -0.8523 H         1 <0>         0.0654
     53 H17         1.1590    0.7891   -2.9599 H         1 <0>         0.3744
     54 H18         0.8240   -1.2643    3.7867 H         1 <0>         0.0681
     55 H19         0.8381    0.0624    5.8841 H         1 <0>         0.0682
     56 H20         0.3629    1.5110    4.9684 H         1 <0>         0.0679
     57 H21        -3.9318    0.3775    3.1062 H         1 <0>         0.0799
     58 H22        -3.4547   -1.0097    4.1135 H         1 <0>         0.0663
     59 H23        -4.0716    1.8177    5.0894 H         1 <0>         0.0998
     60 H24        -5.0630    0.3602    5.3556 H         1 <0>         0.0861
     61 H25        -1.2905    0.2369    7.2751 H         1 <0>         0.0881
     62 H26        -1.5978    1.7375    6.3640 H         1 <0>         0.1033
     63 H27        -2.4092    2.3842    2.9678 H         1 <0>         0.0605
     64 H28        -2.2826    2.4598    4.7416 H         1 <0>         0.0568
     65 H29        -0.8105    2.3351    3.7488 H         1 <0>         0.0649
     66 H30         2.8267   -0.2746    2.7893 H         1 <0>         0.0833
     67 H31         2.4375    1.3100    3.5005 H         1 <0>         0.0596
     68 H32         2.6453    0.3409    5.7735 H         1 <0>         0.0631
     69 H33         3.0345   -1.2437    5.0623 H         1 <0>         0.0588
     70 H34         5.0304   -0.2617    3.9665 H         1 <0>         0.0589
     71 H35         4.6413    1.3229    4.6777 H         1 <0>         0.0594
     72 H36         4.8491    0.3538    6.9507 H         1 <0>         0.0613
     73 H37         5.2382   -1.2308    6.2395 H         1 <0>         0.0613
     74 H38         7.2341   -0.2489    5.1437 H         1 <0>         0.0613
     75 H39         6.8450    1.3357    5.8549 H         1 <0>         0.0613
     76 H40         7.0528    0.3666    8.1279 H         1 <0>         0.0690
     77 H41         7.4419   -1.2180    7.4167 H         1 <0>         0.0692
     78 H42         9.4379   -0.2361    6.3209 H         1 <0>         0.0924
     79 H43         9.0487    1.3486    7.0321 H         1 <0>         0.0924
     80 H44        12.4959    0.1291    7.0733 H         1 <0>         0.0707
     81 H45        11.0664    1.1314    6.7136 H         1 <0>         0.0867
     82 H46        13.1025    2.4918    7.3102 H         1 <0>         0.0772
     83 H47        11.7313    2.7647    8.4128 H         1 <0>         0.0674
     84 H48        14.0622    0.8617    8.9273 H         1 <0>         0.0652
     85 H49        13.8651    2.4710    9.6612 H         1 <0>         0.0670
     86 H50        13.0641    0.7123   11.2022 H         1 <0>         0.0764
     87 H51        11.7091    1.7349   10.6650 H         1 <0>         0.0660
     88 H52        11.0266   -0.6043   10.5339 H         1 <0>         0.0922
     89 H53        12.4698   -1.0040    9.5672 H         1 <0>         0.0663
@<TRIPOS>BOND
     1    1    2 1
     2    1   42 1
     3    1   43 1
     4    1   44 1
     5    2    9 1
     6    2   13 1
     7    2    3 1
     8    3    4 1
     9    3   45 1
    10    3   46 1
    11    4    5 1
    12    4   47 1
    13    4   48 1
    14    5    6 1
    15    5   20 1
    16    5    7 1
    17    7    8 1
    18    7    9 1
    19    7   16 1
    20    9   10 1
    21    9   11 1
    22   11   12 1
    23   11   49 1
    24   11   50 1
    25   12   13 1
    26   12   51 1
    27   12   52 1
    28   13   14 1
    29   13   15 1
    30   15   53 1
    31   16   17 1
    32   16   27 1
    33   16   54 1
    34   17   18 1
    35   17   55 1
    36   17   56 1
    37   18   19 1
    38   18   25 1
    39   18   20 1
    40   20   21 1
    41   20   26 1
    42   21   22 1
    43   21   57 1
    44   21   58 1
    45   22   23 1
    46   22   59 1
    47   22   60 1
    48   23   24 2
    49   23   25 1
    50   25   61 1
    51   25   62 1
    52   26   63 1
    53   26   64 1
    54   26   65 1
    55   27   28 1
    56   27   66 1
    57   27   67 1
    58   28   29 1
    59   28   68 1
    60   28   69 1
    61   29   30 1
    62   29   70 1
    63   29   71 1
    64   30   31 1
    65   30   72 1
    66   30   73 1
    67   31   32 1
    68   31   74 1
    69   31   75 1
    70   32   33 1
    71   32   76 1
    72   32   77 1
    73   33   34 1
    74   33   78 1
    75   33   79 1
    76   34   35 2
    77   34   36 am
    78   36   41 1
    79   36   37 1
    80   37   38 1
    81   37   80 1
    82   37   81 1
    83   38   39 1
    84   38   82 1
    85   38   83 1
    86   39   40 1
    87   39   84 1
    88   39   85 1
    89   40   41 1
    90   40   86 1
    91   40   87 1
    92   41   88 1
    93   41   89 1
@<TRIPOS>MOLECULE
CHEMBL224707__1
   89    93     0     0     0
SMALL
USER_CHARGES

@<TRIPOS>ATOM
      1 C1         -0.0187    1.5258    0.0104 C.3       1 <0>        -0.1330
      2 C2          0.0021   -0.0041    0.0020 C.3       1 <0>        -0.0571
      3 C3         -1.4161   -0.5361    0.0674 C.3       1 <0>        -0.1028
      4 C4         -2.0828    0.0906    1.3034 C.3       1 <0>        -0.1199
      5 C5         -1.3025   -0.2223    2.5757 C.3       1 <0>        -0.0690
      6 H1         -1.3347   -1.2973    2.7528 H         1 <0>         0.0719
      7 C6          0.1645    0.2178    2.4629 C.3       1 <0>        -0.0696
      8 H2          0.2192    1.2972    2.3211 H         1 <0>         0.0872
      9 C7          0.7519   -0.5258    1.2577 C.3       1 <0>        -0.0819
     10 H3          0.6157   -1.6021    1.3636 H         1 <0>         0.0792
     11 C8          2.2062   -0.1865    0.9129 C.3       1 <0>        -0.1122
     12 C9          2.3055   -0.5687   -0.5893 C.3       1 <0>        -0.1572
     13 C10         0.8643   -0.5016   -1.1533 C.3       1 <0>         0.1100
     14 H4          0.5363   -1.4916   -1.4703 H         1 <0>         0.0553
     15 O1          0.8030    0.4153   -2.2476 O.3       1 <0>        -0.5601
     16 C11         0.8988   -0.1776    3.7458 C.3       1 <0>        -0.0790
     17 C12         0.2544    0.5368    4.9342 C.3       1 <0>        -0.1131
     18 C13        -1.2166    0.1293    5.0511 C.3       1 <0>        -0.0645
     19 H5         -1.2848   -0.9438    5.2295 H         1 <0>         0.0795
     20 C14        -1.9420    0.4937    3.7676 C.3       1 <0>        -0.0508
     21 C15        -3.4079    0.0629    3.8714 C.3       1 <0>        -0.1079
     22 C16        -4.0910    0.8331    5.0051 C.3       1 <0>        -0.1750
     23 C17        -3.2949    0.6173    6.2736 C.2       1 <0>         0.3648
     24 O2         -3.8325    0.2424    7.2878 O.2       1 <0>        -0.4597
     25 C18        -1.8417    0.8866    6.2295 C.3       1 <0>        -0.1748
     26 C19        -1.8672    2.0069    3.5543 C.3       1 <0>        -0.1543
     27 C20         0.8008   -1.6914    3.9450 C.3       1 <0>        -0.1189
     28 C21         1.6386   -2.1015    5.1578 C.3       1 <0>        -0.1212
     29 C22         1.5406   -3.6153    5.3570 C.3       1 <0>        -0.1186
     30 C23         2.3784   -4.0254    6.5698 C.3       1 <0>        -0.1199
     31 C24         2.2804   -5.5392    6.7690 C.3       1 <0>        -0.1194
     32 C25         3.1182   -5.9493    7.9818 C.3       1 <0>        -0.1050
     33 C26         3.0202   -7.4631    8.1810 C.3       1 <0>        -0.1396
     34 C27         3.8454   -7.8671    9.3756 C.2       1 <0>         0.5136
     35 O3          4.4521   -7.0269   10.0055 O.2       1 <0>        -0.5398
     36 N1          3.9091   -9.1620    9.7438 N.am      1 <0>        -0.6158
     37 C28         3.1845  -10.1920    8.9870 C.3       1 <0>         0.1052
     38 C29         4.1713  -11.2911    8.5809 C.3       1 <0>        -0.1370
     39 C30         4.8873  -11.8146    9.8281 C.3       1 <0>        -0.1216
     40 C31         5.6742  -10.6765   10.4820 C.3       1 <0>        -0.1356
     41 C32         4.7093   -9.5712   10.9061 C.3       1 <0>         0.1088
     42 H6          1.0039    1.9031    0.0027 H         1 <0>         0.0527
     43 H7         -0.5459    1.8868   -0.8726 H         1 <0>         0.0575
     44 H8         -0.5289    1.8773    0.9072 H         1 <0>         0.0614
     45 H9         -1.9610   -0.2510   -0.8325 H         1 <0>         0.0643
     46 H10        -1.4008   -1.6217    0.1646 H         1 <0>         0.0607
     47 H11        -2.1323    1.1715    1.1723 H         1 <0>         0.0711
     48 H12        -3.0949   -0.3023    1.4003 H         1 <0>         0.0634
     49 H13         2.3979    0.8772    1.0537 H         1 <0>         0.0694
     50 H14         2.8939   -0.7857    1.5096 H         1 <0>         0.0652
     51 H15         2.9460    0.1401   -1.1141 H         1 <0>         0.0713
     52 H16         2.7012   -1.5790   -0.6929 H         1 <0>         0.0654
     53 H17         1.3325    0.1511   -3.0123 H         1 <0>         0.3745
     54 H18         1.9465    0.1136    3.6703 H         1 <0>         0.0720
     55 H19         0.7797    0.2635    5.8494 H         1 <0>         0.0666
     56 H20         0.3210    1.6150    4.7881 H         1 <0>         0.0669
     57 H21        -3.9160    0.2752    2.9308 H         1 <0>         0.0798
     58 H22        -3.4582   -1.0063    4.0773 H         1 <0>         0.0659
     59 H23        -4.1167    1.8958    4.7639 H         1 <0>         0.0997
     60 H24        -5.1068    0.4621    5.1413 H         1 <0>         0.0858
     61 H25        -1.3863    0.5518    7.1616 H         1 <0>         0.0877
     62 H26        -1.6775    1.9568    6.1043 H         1 <0>         0.1030
     63 H27        -2.4015    2.2720    2.6420 H         1 <0>         0.0604
     64 H28        -2.3227    2.5165    4.4034 H         1 <0>         0.0567
     65 H29        -0.8240    2.3101    3.4655 H         1 <0>         0.0647
     66 H30        -0.2399   -1.9693    4.1116 H         1 <0>         0.0663
     67 H31         1.1749   -2.1998    3.0564 H         1 <0>         0.0633
     68 H32         2.6793   -1.8236    4.9912 H         1 <0>         0.0592
     69 H33         1.2646   -1.5931    6.0465 H         1 <0>         0.0627
     70 H34         0.4999   -3.8933    5.5236 H         1 <0>         0.0589
     71 H35         1.9147   -4.1237    4.4684 H         1 <0>         0.0589
     72 H36         3.4191   -3.7475    6.4032 H         1 <0>         0.0614
     73 H37         2.0043   -3.5170    7.4585 H         1 <0>         0.0616
     74 H38         1.2397   -5.8172    6.9356 H         1 <0>         0.0614
     75 H39         2.6545   -6.0476    5.8803 H         1 <0>         0.0611
     76 H40         4.1589   -5.6714    7.8152 H         1 <0>         0.0690
     77 H41         2.7441   -5.4410    8.8705 H         1 <0>         0.0694
     78 H42         1.9794   -7.7411    8.3476 H         1 <0>         0.0925
     79 H43         3.3942   -7.9715    7.2923 H         1 <0>         0.0922
     80 H44         2.3987  -10.6186    9.6105 H         1 <0>         0.0708
     81 H45         2.7446   -9.7477    8.0941 H         1 <0>         0.0866
     82 H46         3.6300  -12.1074    8.1026 H         1 <0>         0.0772
     83 H47         4.9043  -10.8830    7.8850 H         1 <0>         0.0673
     84 H48         4.1518  -12.2000   10.5341 H         1 <0>         0.0652
     85 H49         5.5723  -12.6138    9.5450 H         1 <0>         0.0670
     86 H50         6.2026  -11.0554   11.3569 H         1 <0>         0.0764
     87 H51         6.3930  -10.2741    9.7682 H         1 <0>         0.0659
     88 H52         5.2752   -8.7175   11.2790 H         1 <0>         0.0923
     89 H53         4.0507   -9.9460   11.6895 H         1 <0>         0.0663
@<TRIPOS>BOND
     1    1    2 1
     2    1   42 1
     3    1   43 1
     4    1   44 1
     5    2    9 1
     6    2   13 1
     7    2    3 1
     8    3    4 1
     9    3   45 1
    10    3   46 1
    11    4    5 1
    12    4   47 1
    13    4   48 1
    14    5    6 1
    15    5   20 1
    16    5    7 1
    17    7    8 1
    18    7    9 1
    19    7   16 1
    20    9   10 1
    21    9   11 1
    22   11   12 1
    23   11   49 1
    24   11   50 1
    25   12   13 1
    26   12   51 1
    27   12   52 1
    28   13   14 1
    29   13   15 1
    30   15   53 1
    31   16   17 1
    32   16   27 1
    33   16   54 1
    34   17   18 1
    35   17   55 1
    36   17   56 1
    37   18   19 1
    38   18   25 1
    39   18   20 1
    40   20   21 1
    41   20   26 1
    42   21   22 1
    43   21   57 1
    44   21   58 1
    45   22   23 1
    46   22   59 1
    47   22   60 1
    48   23   24 2
    49   23   25 1
    50   25   61 1
    51   25   62 1
    52   26   63 1
    53   26   64 1
    54   26   65 1
    55   27   28 1
    56   27   66 1
    57   27   67 1
    58   28   29 1
    59   28   68 1
    60   28   69 1
    61   29   30 1
    62   29   70 1
    63   29   71 1
    64   30   31 1
    65   30   72 1
    66   30   73 1
    67   31   32 1
    68   31   74 1
    69   31   75 1
    70   32   33 1
    71   32   76 1
    72   32   77 1
    73   33   34 1
    74   33   78 1
    75   33   79 1
    76   34   35 2
    77   34   36 am
    78   36   41 1
    79   36   37 1
    80   37   38 1
    81   37   80 1
    82   37   81 1
    83   38   39 1
    84   38   82 1
    85   38   83 1
    86   39   40 1
    87   39   84 1
    88   39   85 1
    89   40   41 1
    90   40   86 1
    91   40   87 1
    92   41   88 1
    93   41   89 1
@<TRIPOS>MOLECULE
CHEMBL256082
   47    50     0     0     0
SMALL
USER_CHARGES

@<TRIPOS>ATOM
      1 C1          5.1838    2.2404   -2.3844 C.ar      1 <0>        -0.1195
      2 C2          5.7580    0.9844   -2.4441 C.ar      1 <0>        -0.1174
      3 C3          5.1968   -0.0662   -1.7425 C.ar      1 <0>        -0.1159
      4 C4          4.0616    0.1394   -0.9809 C.ar      1 <0>        -0.0853
      5 C5          3.4879    1.3956   -0.9205 C.ar      1 <0>        -0.1130
      6 C6          4.0484    2.4459   -1.6231 C.ar      1 <0>        -0.1171
      7 C7          3.4492   -1.0062   -0.2169 C.3       1 <0>        -0.0980
      8 C8          4.0797   -1.0859    1.1749 C.3       1 <0>         0.1239
      9 H1          4.0178   -0.1144    1.6651 H         1 <0>         0.1109
     10 C9          5.5483   -1.5177    1.0576 C.3       1 <0>         0.0506
     11 O1          5.6019   -2.8124    0.4547 O.3       1 <0>        -0.2973
     12 C10         4.8022   -3.7839    0.9676 C.ar      1 <0>         0.1470
     13 C11         5.1083   -5.1117    0.7236 C.ar      1 <0>        -0.1577
     14 C12         4.3012   -6.1186    1.2369 C.ar      1 <0>         0.1934
     15 C13         3.1697   -5.7824    2.0059 C.ar      1 <0>        -0.1008
     16 C14         2.8657   -4.4372    2.2500 C.ar      1 <0>        -0.0932
     17 C15         3.6788   -3.4513    1.7343 C.ar      1 <0>         0.1184
     18 N1          3.3801   -2.0991    1.9832 N.pl3     1 <0>        -0.6248
     19 C16         2.4093   -1.7117    3.0097 C.3       1 <0>         0.0917
     20 C17         1.0411   -1.4928    2.3610 C.3       1 <0>         0.4237
     21 F1          0.6847   -2.6305    1.6290 F         1 <0>        -0.1744
     22 F2          0.0852   -1.2600    3.3557 F         1 <0>        -0.1797
     23 F3          1.1021   -0.3879    1.5051 F         1 <0>        -0.1803
     24 C18         2.3290   -6.8542    2.5372 C.2       1 <0>        -0.0807
     25 C19         2.6708   -8.1404    2.2698 C.2       1 <0>        -0.1373
     26 C20         3.8141   -8.4249    1.4962 C.2       1 <0>         0.5384
     27 O2          4.1030   -9.5873    1.2684 O.2       1 <0>        -0.5196
     28 N2          4.5936   -7.4474    1.0024 N.am      1 <0>        -0.6193
     29 H2          5.3731   -7.6791    0.4735 H         1 <0>         0.4223
     30 C21         1.1090   -6.5378    3.3635 C.3       1 <0>         0.5072
     31 F4          0.4838   -7.7290    3.7470 F         1 <0>        -0.1669
     32 F5          1.4908   -5.8233    4.5041 F         1 <0>        -0.1686
     33 F6          0.2200   -5.7672    2.6064 F         1 <0>        -0.1639
     34 H3          5.6249    3.0622   -2.9289 H         1 <0>         0.1221
     35 H4          6.6449    0.8238   -3.0391 H         1 <0>         0.1232
     36 H5          5.6449   -1.0477   -1.7897 H         1 <0>         0.1258
     37 H6          2.6009    1.5561   -0.3257 H         1 <0>         0.1218
     38 H7          3.5999    3.4273   -1.5762 H         1 <0>         0.1227
     39 H8          2.3753   -0.8459   -0.1206 H         1 <0>         0.0885
     40 H9          3.6309   -1.9382   -0.7520 H         1 <0>         0.0816
     41 H10         6.0906   -0.8035    0.4379 H         1 <0>         0.1271
     42 H11         5.9975   -1.5580    2.0499 H         1 <0>         0.0772
     43 H12         5.9766   -5.3651    0.1334 H         1 <0>         0.1524
     44 H13         1.9997   -4.1742    2.8394 H         1 <0>         0.1378
     45 H14         2.3351   -2.5023    3.7564 H         1 <0>         0.1245
     46 H15         2.7360   -0.7888    3.4889 H         1 <0>         0.1259
     47 H16         2.0647   -8.9487    2.6515 H         1 <0>         0.1726
@<TRIPOS>BOND
     1    1    6 ar
     2    1    2 ar
     3    1   34 1
     4    2    3 ar
     5    2   35 1
     6    3    4 ar
     7    3   36 1
     8    4    5 ar
     9    4    7 1
    10    5    6 ar
    11    5   37 1
    12    6   38 1
    13    7    8 1
    14    7   39 1
    15    7   40 1
    16    8    9 1
    17    8   18 1
    18    8   10 1
    19   10   11 1
    20   10   41 1
    21   10   42 1
    22   11   12 1
    23   12   17 ar
    24   12   13 ar
    25   13   14 ar
    26   13   43 1
    27   14   28 1
    28   14   15 ar
    29   15   16 ar
    30   15   24 1
    31   16   17 ar
    32   16   44 1
    33   17   18 1
    34   18   19 1
    35   19   20 1
    36   19   45 1
    37   19   46 1
    38   20   21 1
    39   20   22 1
    40   20   23 1
    41   24   25 2
    42   24   30 1
    43   25   26 1
    44   25   47 1
    45   26   27 2
    46   26   28 am
    47   28   29 1
    48   30   31 1
    49   30   32 1
    50   30   33 1
@<TRIPOS>MOLECULE
CHEMBL446626
   39    43     0     0     0
SMALL
USER_CHARGES

@<TRIPOS>ATOM
      1 C1         -0.0187    1.5258    0.0104 C.3       1 <0>        -0.1281
      2 C2          0.0021   -0.0041    0.0020 C.3       1 <0>         0.1064
      3 C3         -1.3940   -0.6903    0.0892 C.3       1 <0>        -0.1394
      4 C4         -1.0492   -2.1022    0.6279 C.3       1 <0>        -0.1396
      5 C5          0.5004   -2.0440    0.7799 C.3       1 <0>         0.1060
      6 O1          0.7019   -0.6344    1.1240 O.3       1 <0>        -0.3591
      7 C6          1.0598   -2.0879   -0.6729 C.3       1 <0>        -0.1421
      8 H1          0.6474   -2.8989   -1.2731 H         1 <0>         0.1505
      9 C7          0.7257   -0.6540   -1.2142 C.3       1 <0>        -0.1432
     10 H2          0.1237   -0.6655   -2.1228 H         1 <0>         0.1488
     11 C8          2.0770    0.0038   -1.3755 C.2       1 <0>         0.5496
     12 O2          2.2620    1.1339   -1.7732 O.2       1 <0>        -0.4643
     13 N1          3.0372   -0.8532   -1.0108 N.am      1 <0>        -0.5393
     14 C9          2.5697   -2.0969   -0.6047 C.2       1 <0>         0.5504
     15 O3          3.2479   -3.0316   -0.2363 O.2       1 <0>        -0.4450
     16 C10         4.3932   -0.5284   -1.0517 C.ar      1 <0>         0.1926
     17 C11         4.9891    0.0299    0.0511 C.ar      1 <0>        -0.0722
     18 C12         6.3310    0.3733    0.0686 C.ar      1 <0>        -0.0159
     19 C13         7.1384    0.1661   -1.0364 C.ar      1 <0>         0.0371
     20 C14         6.5567   -0.4321   -2.2553 C.ar      1 <0>         0.0999
     21 C15         5.1432   -0.7862   -2.2371 C.ar      1 <0>         0.0744
     22 N2          4.7234   -1.3227   -3.3831 N.2       1 <0>        -0.4924
     23 S1          6.0144   -1.3598   -4.3425 S.3       1 <0>         0.6776
     24 N3          7.1538   -0.7110   -3.4099 N.2       1 <0>        -0.4949
     25 C16         8.5233    0.5283   -0.9986 C.1       1 <0>         0.2526
     26 N4          9.6219    0.8157   -0.9686 N.1       1 <0>        -0.3836
     27 C17         1.1009   -3.0563    1.7575 C.3       1 <0>        -0.1282
     28 H3          1.0039    1.9031    0.0027 H         1 <0>         0.0745
     29 H4         -0.5459    1.8868   -0.8726 H         1 <0>         0.0847
     30 H5         -0.5289    1.8773    0.9072 H         1 <0>         0.0763
     31 H6         -2.0427   -0.1590    0.7857 H         1 <0>         0.0874
     32 H7         -1.8548   -0.7550   -0.8965 H         1 <0>         0.0852
     33 H8         -1.5257   -2.2743    1.5930 H         1 <0>         0.0874
     34 H9         -1.3384   -2.8704   -0.0892 H         1 <0>         0.0852
     35 H10         4.3926    0.2075    0.9338 H         1 <0>         0.1584
     36 H11         6.7548    0.8109    0.9604 H         1 <0>         0.1656
     37 H12         0.8850   -4.0672    1.4119 H         1 <0>         0.0851
     38 H13         2.1801   -2.9133    1.8112 H         1 <0>         0.0732
     39 H14         0.6653   -2.9094    2.7458 H         1 <0>         0.0782
@<TRIPOS>BOND
     1    1    2 1
     2    1   28 1
     3    1   29 1
     4    1   30 1
     5    2    6 1
     6    2    9 1
     7    2    3 1
     8    3    4 1
     9    3   31 1
    10    3   32 1
    11    4    5 1
    12    4   33 1
    13    4   34 1
    14    5    6 1
    15    5    7 1
    16    5   27 1
    17    7    8 1
    18    7   14 1
    19    7    9 1
    20    9   10 1
    21    9   11 1
    22   11   12 2
    23   11   13 am
    24   13   14 am
    25   13   16 1
    26   14   15 2
    27   16   21 ar
    28   16   17 ar
    29   17   18 ar
    30   17   35 1
    31   18   19 ar
    32   18   36 1
    33   19   20 ar
    34   19   25 1
    35   20   24 2
    36   20   21 ar
    37   21   22 2
    38   22   23 1
    39   23   24 1
    40   25   26 3
    41   27   37 1
    42   27   38 1
    43   27   39 1
@<TRIPOS>MOLECULE
CHEMBL446626__1
   39    43     0     0     0
SMALL
USER_CHARGES

@<TRIPOS>ATOM
      1 C1         -0.0187    1.5258    0.0104 C.3       1 <0>        -0.1256
      2 C2          0.0021   -0.0041    0.0020 C.3       1 <0>         0.1123
      3 C3          0.7699   -0.6540   -1.1878 C.3       1 <0>        -0.1587
      4 C4          1.1093   -2.0662   -0.6464 C.3       1 <0>        -0.1592
      5 C5          0.4927   -2.0442    0.7844 C.3       1 <0>         0.1130
      6 O1          0.6617   -0.6351    1.1478 O.3       1 <0>        -0.3444
      7 C6         -1.0481   -2.1229    0.5717 C.3       1 <0>        -0.1493
      8 H1         -1.5982   -2.3908    1.4738 H         1 <0>         0.1475
      9 C7         -1.3958   -0.6897    0.0373 C.3       1 <0>        -0.1401
     10 H2         -2.1306   -0.1480    0.6330 H         1 <0>         0.1507
     11 C8         -1.8315   -0.9632   -1.3839 C.2       1 <0>         0.5492
     12 O2         -2.1811   -0.1212   -2.1829 O.2       1 <0>        -0.4594
     13 N1         -1.7710   -2.2777   -1.6244 N.am      1 <0>        -0.5367
     14 C9         -1.3241   -3.0410   -0.5968 C.2       1 <0>         0.5522
     15 O3         -1.1887   -4.2456   -0.5874 O.2       1 <0>        -0.4495
     16 C10        -2.1155   -2.8358   -2.8555 C.ar      1 <0>         0.1856
     17 C11        -1.1530   -2.9921   -3.8210 C.ar      1 <0>        -0.0743
     18 C12        -1.4363   -3.5394   -5.0616 C.ar      1 <0>        -0.0181
     19 C13        -2.7156   -3.9574   -5.3855 C.ar      1 <0>         0.0419
     20 C14        -3.7966   -3.8164   -4.3888 C.ar      1 <0>         0.0994
     21 C15        -3.4622   -3.2416   -3.0921 C.ar      1 <0>         0.0749
     22 N2         -4.5076   -3.1656   -2.2682 N.2       1 <0>        -0.4918
     23 S1         -5.7507   -3.7738   -3.0886 S.3       1 <0>         0.6846
     24 N3         -5.0780   -4.1526   -4.5002 N.2       1 <0>        -0.4948
     25 C16        -2.9883   -4.5202   -6.6737 C.1       1 <0>         0.2512
     26 N4         -3.2046   -4.9667   -7.6956 N.1       1 <0>        -0.3810
     27 C17         1.0836   -3.0566    1.7677 C.3       1 <0>        -0.1249
     28 H3          1.0039    1.9031    0.0027 H         1 <0>         0.0776
     29 H4         -0.5459    1.8868   -0.8726 H         1 <0>         0.0855
     30 H5         -0.5289    1.8773    0.9072 H         1 <0>         0.0760
     31 H6          0.1316   -0.7213   -2.0688 H         1 <0>         0.0768
     32 H7          1.6799   -0.0969   -1.4106 H         1 <0>         0.0964
     33 H8          0.6398   -2.8371   -1.2574 H         1 <0>         0.0755
     34 H9          2.1883   -2.2128   -0.5996 H         1 <0>         0.0963
     35 H10        -0.1421   -2.6781   -3.6068 H         1 <0>         0.1554
     36 H11        -0.6450   -3.6415   -5.7894 H         1 <0>         0.1662
     37 H12         2.1554   -2.8845    1.8661 H         1 <0>         0.0782
     38 H13         0.6060   -2.9396    2.7405 H         1 <0>         0.0760
     39 H14         0.9103   -4.0668    1.3969 H         1 <0>         0.0853
@<TRIPOS>BOND
     1    1    2 1
     2    1   28 1
     3    1   29 1
     4    1   30 1
     5    2    6 1
     6    2    9 1
     7    2    3 1
     8    3    4 1
     9    3   31 1
    10    3   32 1
    11    4    5 1
    12    4   33 1
    13    4   34 1
    14    5    6 1
    15    5    7 1
    16    5   27 1
    17    7    8 1
    18    7   14 1
    19    7    9 1
    20    9   10 1
    21    9   11 1
    22   11   12 2
    23   11   13 am
    24   13   14 am
    25   13   16 1
    26   14   15 2
    27   16   21 ar
    28   16   17 ar
    29   17   18 ar
    30   17   35 1
    31   18   19 ar
    32   18   36 1
    33   19   20 ar
    34   19   25 1
    35   20   24 2
    36   20   21 ar
    37   21   22 2
    38   22   23 1
    39   23   24 1
    40   25   26 3
    41   27   37 1
    42   27   38 1
    43   27   39 1
@<TRIPOS>MOLECULE
CHEMBL271261
   42    46     0     0     0
SMALL
USER_CHARGES

@<TRIPOS>ATOM
      1 C1         -0.0735    1.5713   -0.4424 C.3       1 <0>        -0.1288
      2 C2         -0.0278    0.0637   -0.1856 C.3       1 <0>         0.1058
      3 C3         -1.4145   -0.6259   -0.0141 C.3       1 <0>        -0.1386
      4 C4         -1.0614   -1.9162    0.7687 C.3       1 <0>        -0.1389
      5 C5          0.4824   -1.8008    0.9449 C.3       1 <0>         0.1070
      6 O1          0.6518   -0.3492    1.0447 O.3       1 <0>        -0.3592
      7 C6          1.0812   -2.0831   -0.4648 C.3       1 <0>        -0.1437
      8 H1          0.6983   -2.9938   -0.9252 H         1 <0>         0.1511
      9 C7          0.7387   -0.7713   -1.2537 C.3       1 <0>        -0.1450
     10 H2          0.1615   -0.9517   -2.1605 H         1 <0>         0.1493
     11 C8          2.0830   -0.1235   -1.4943 C.2       1 <0>         0.5368
     12 O2          2.2603    0.9247   -2.0770 O.2       1 <0>        -0.4560
     13 N1          3.0467   -0.8847   -0.9643 N.am      1 <0>        -0.5217
     14 C9          2.5888   -2.0491   -0.3604 C.2       1 <0>         0.5383
     15 O3          3.2719   -2.8922    0.1801 O.2       1 <0>        -0.4361
     16 C10         4.3969   -0.5442   -1.0286 C.2       1 <0>         0.1579
     17 C11         5.2579   -1.3187   -1.7489 C.2       1 <0>         0.2323
     18 C12         6.6197   -0.9809   -1.8176 C.2       1 <0>        -0.1445
     19 C13         7.0757    0.1227   -1.1626 C.2       1 <0>        -0.0208
     20 C14         6.1755    0.9131   -0.4233 C.2       1 <0>         0.1967
     21 N2          4.8500    0.5689   -0.3729 N.pl3     1 <0>        -0.3282
     22 C15         4.2210    1.5077    0.4017 C.2       1 <0>        -0.0770
     23 C16         5.1610    2.3937    0.7966 C.2       1 <0>         0.0306
     24 N3          6.3402    2.0164    0.2962 N.2       1 <0>        -0.4774
     25 N4          4.7826   -2.4554   -2.4224 N.pl3     1 <0>        -0.8571
     26 C17         1.0728   -2.6167    2.0967 C.3       1 <0>        -0.1285
     27 H3          0.9427    1.9625   -0.4911 H         1 <0>         0.0729
     28 H4         -0.5826    1.7637   -1.3868 H         1 <0>         0.0857
     29 H5         -0.6132    2.0616    0.3678 H         1 <0>         0.0778
     30 H6         -2.0901    0.0041    0.5645 H         1 <0>         0.0881
     31 H7         -1.8474   -0.8691   -0.9844 H         1 <0>         0.0857
     32 H8         -1.5608   -1.9291    1.7375 H         1 <0>         0.0880
     33 H9         -1.3187   -2.8025    0.1886 H         1 <0>         0.0857
     34 H10         7.3024   -1.5940   -2.3873 H         1 <0>         0.1538
     35 H11         8.1212    0.3895   -1.2098 H         1 <0>         0.1629
     36 H12         3.1702    1.5347    0.6495 H         1 <0>         0.1715
     37 H13         4.9891    3.2582    1.4207 H         1 <0>         0.1826
     38 H14         3.8305   -2.6385   -2.4524 H         1 <0>         0.3943
     39 H15         5.4063   -3.0574   -2.8575 H         1 <0>         0.4111
     40 H16         0.8827   -3.6764    1.9262 H         1 <0>         0.0858
     41 H17         2.1477   -2.4445    2.1504 H         1 <0>         0.0714
     42 H18         0.6085   -2.3106    3.0342 H         1 <0>         0.0788
@<TRIPOS>BOND
     1    1    2 1
     2    1   27 1
     3    1   28 1
     4    1   29 1
     5    2    6 1
     6    2    9 1
     7    2    3 1
     8    3    4 1
     9    3   30 1
    10    3   31 1
    11    4    5 1
    12    4   32 1
    13    4   33 1
    14    5    6 1
    15    5    7 1
    16    5   26 1
    17    7    8 1
    18    7   14 1
    19    7    9 1
    20    9   10 1
    21    9   11 1
    22   11   12 2
    23   11   13 am
    24   13   14 am
    25   13   16 1
    26   14   15 2
    27   16   21 1
    28   16   17 2
    29   17   18 1
    30   17   25 1
    31   18   19 2
    32   18   34 1
    33   19   20 1
    34   19   35 1
    35   20   24 2
    36   20   21 1
    37   21   22 1
    38   22   23 2
    39   22   36 1
    40   23   24 1
    41   23   37 1
    42   25   38 1
    43   25   39 1
    44   26   40 1
    45   26   41 1
    46   26   42 1
@<TRIPOS>MOLECULE
CHEMBL271261__1
   42    46     0     0     0
SMALL
USER_CHARGES

@<TRIPOS>ATOM
      1 C1          1.1441    1.4317   -0.8237 C.3       1 <0>        -0.1256
      2 C2          0.6199    0.0360   -0.4802 C.3       1 <0>         0.1146
      3 C3          1.2222   -1.1285   -1.3223 C.3       1 <0>        -0.1650
      4 C4          0.9803   -2.3651   -0.4196 C.3       1 <0>        -0.1655
      5 C5          0.2709   -1.7506    0.8241 C.3       1 <0>         0.1154
      6 O1          0.8926   -0.4254    0.8832 O.3       1 <0>        -0.3426
      7 C6         -1.1672   -1.3931    0.3450 C.3       1 <0>        -0.1517
      8 H1         -1.8646   -1.2099    1.1623 H         1 <0>         0.1486
      9 C7         -0.9264   -0.1328   -0.5574 C.3       1 <0>        -0.1424
     10 H2         -1.4764    0.7573   -0.2518 H         1 <0>         0.1519
     11 C8         -1.2850   -0.6392   -1.9356 C.2       1 <0>         0.5389
     12 O2         -1.2295    0.0120   -2.9567 O.2       1 <0>        -0.4522
     13 N1         -1.6722   -1.9170   -1.8550 N.am      1 <0>        -0.5199
     14 C9         -1.6324   -2.4639   -0.6150 C.2       1 <0>         0.5412
     15 O3         -1.9362   -3.5962   -0.3064 O.2       1 <0>        -0.4432
     16 C10        -2.0663   -2.6567   -2.9689 C.2       1 <0>         0.1419
     17 C11        -3.3773   -2.6702   -3.3445 C.2       1 <0>         0.2452
     18 C12        -3.7808   -3.4137   -4.4661 C.2       1 <0>        -0.1461
     19 C13        -2.8576   -4.1198   -5.1761 C.2       1 <0>        -0.0151
     20 C14        -1.5078   -4.0963   -4.7769 C.2       1 <0>         0.1995
     21 N2         -1.1342   -3.3609   -3.6826 N.pl3     1 <0>        -0.3270
     22 C15         0.2190   -3.5176   -3.5372 C.2       1 <0>        -0.1024
     23 C16         0.6360   -4.3286   -4.5337 C.2       1 <0>         0.0363
     24 N3         -0.4213   -4.6771   -5.2711 N.2       1 <0>        -0.4754
     25 N4         -4.3249   -1.9405   -2.6091 N.pl3     1 <0>        -0.8567
     26 C17         0.3604   -2.5812    2.1059 C.3       1 <0>        -0.1248
     27 H3          2.2292    1.4476   -0.7218 H         1 <0>         0.0786
     28 H4          0.8719    1.6797   -1.8497 H         1 <0>         0.0851
     29 H5          0.7047    2.1622   -0.1445 H         1 <0>         0.0771
     30 H6          0.6941   -1.2330   -2.2701 H         1 <0>         0.0774
     31 H7          2.2884   -0.9739   -1.4880 H         1 <0>         0.0987
     32 H8          0.3315   -3.0856   -0.9175 H         1 <0>         0.0761
     33 H9          1.9260   -2.8269   -0.1358 H         1 <0>         0.0986
     34 H10        -4.8188   -3.4255   -4.7639 H         1 <0>         0.1557
     35 H11        -3.1592   -4.6944   -6.0394 H         1 <0>         0.1648
     36 H12         0.8368   -3.0751   -2.7698 H         1 <0>         0.1749
     37 H13         1.6538   -4.6491   -4.7009 H         1 <0>         0.1838
     38 H14        -4.0628   -1.4932   -1.7892 H         1 <0>         0.3974
     39 H15        -5.2417   -1.8836   -2.9209 H         1 <0>         0.4125
     40 H16         1.4075   -2.7374    2.3652 H         1 <0>         0.0793
     41 H17        -0.1399   -2.0525    2.9172 H         1 <0>         0.0771
     42 H18        -0.1226   -3.5456    1.9483 H         1 <0>         0.0849
@<TRIPOS>BOND
     1    1    2 1
     2    1   27 1
     3    1   28 1
     4    1   29 1
     5    2    6 1
     6    2    9 1
     7    2    3 1
     8    3    4 1
     9    3   30 1
    10    3   31 1
    11    4    5 1
    12    4   32 1
    13    4   33 1
    14    5    6 1
    15    5    7 1
    16    5   26 1
    17    7    8 1
    18    7   14 1
    19    7    9 1
    20    9   10 1
    21    9   11 1
    22   11   12 2
    23   11   13 am
    24   13   14 am
    25   13   16 1
    26   14   15 2
    27   16   21 1
    28   16   17 2
    29   17   18 1
    30   17   25 1
    31   18   19 2
    32   18   34 1
    33   19   20 1
    34   19   35 1
    35   20   24 2
    36   20   21 1
    37   21   22 1
    38   22   23 2
    39   22   36 1
    40   23   24 1
    41   23   37 1
    42   25   38 1
    43   25   39 1
    44   26   40 1
    45   26   41 1
    46   26   42 1
@<TRIPOS>MOLECULE
CHEMBL365692
   55    57     0     0     0
SMALL
USER_CHARGES

@<TRIPOS>ATOM
      1 C1         -0.0263    1.5154   -0.0197 C.3       1 <0>        -0.1586
      2 C2          0.0054   -0.0142   -0.0043 C.3       1 <0>         0.1281
      3 C3         -1.3948   -0.5751    0.1455 C.2       1 <0>         0.5354
      4 O1         -2.3277   -0.4283   -0.6148 O.2       1 <0>        -0.4252
      5 N1         -1.3868   -1.2717    1.2992 N.am      1 <0>        -0.5137
      6 C4         -0.1886   -1.2293    1.8929 C.2       1 <0>         0.7100
      7 O2          0.0639   -1.7826    2.9451 O.2       1 <0>        -0.5049
      8 N2          0.7055   -0.5060    1.1950 N.am      1 <0>        -0.4818
      9 O3          2.0563   -0.2648    1.5446 O.3       1 <0>        -0.0644
     10 C5          2.2508    0.9074    2.3383 C.3       1 <0>         0.1371
     11 C6          3.6827    1.0618    2.6427 C.1       1 <0>        -0.1935
     12 C7          4.8247    1.1849    2.8855 C.1       1 <0>        -0.1158
     13 C8          6.2566    1.3392    3.1900 C.3       1 <0>         0.0305
     14 C9          6.4618    2.5755    4.0270 C.ar      1 <0>        -0.1066
     15 C10         6.6920    3.7950    3.4111 C.ar      1 <0>        -0.0633
     16 C11         6.8814    4.9345    4.1670 C.ar      1 <0>        -0.1530
     17 C12         6.8418    4.8648    5.5518 C.ar      1 <0>         0.1748
     18 C13         6.6087    3.6333    6.1786 C.ar      1 <0>        -0.1697
     19 C14         6.4139    2.4888    5.4013 C.ar      1 <0>        -0.0599
     20 C15         6.5644    3.5467    7.6508 C.2       1 <0>         0.5618
     21 O4          6.7302    4.5457    8.3238 O.2       1 <0>        -0.5222
     22 N3          6.3400    2.3603    8.2496 N.am      1 <0>        -0.8527
     23 O5          7.0282    5.9836    6.2959 O.3       1 <0>        -0.4772
     24 C16        -2.4946   -1.9541    1.8128 C.ar      1 <0>         0.1609
     25 C17        -2.3566   -2.7452    2.9480 C.ar      1 <0>        -0.1033
     26 C18        -3.4448   -3.4185    3.4567 C.ar      1 <0>        -0.0457
     27 C19        -4.6894   -3.3056    2.8306 C.ar      1 <0>         0.0211
     28 C20        -4.8241   -2.5093    1.6902 C.ar      1 <0>        -0.1205
     29 C21        -3.7319   -1.8350    1.1903 C.ar      1 <0>        -0.0919
     30 C22        -6.1636   -2.3846    1.0111 C.3       1 <0>         0.5070
     31 F1         -6.0469   -1.5408   -0.0987 F         1 <0>        -0.1657
     32 F2         -6.5939   -3.6484    0.5929 F         1 <0>        -0.1680
     33 F3         -7.0934   -1.8487    1.9086 F         1 <0>        -0.1684
     34 C23        -5.8233   -4.0045    3.3561 C.1       1 <0>         0.2293
     35 N4         -6.7229   -4.5590    3.7730 N.1       1 <0>        -0.3691
     36 C24         0.6706   -0.5501   -1.2736 C.3       1 <0>        -0.1472
     37 H1          0.9937    1.8999   -0.0236 H         1 <0>         0.0878
     38 H2         -0.5475    1.8590   -0.9132 H         1 <0>         0.0987
     39 H3         -0.5475    1.8770    0.8666 H         1 <0>         0.0722
     40 H4          1.9001    1.7808    1.7886 H         1 <0>         0.0918
     41 H5          1.6897    0.8139    3.2681 H         1 <0>         0.0921
     42 H6          6.6074    0.4658    3.7397 H         1 <0>         0.1062
     43 H7          6.8177    1.4328    2.2602 H         1 <0>         0.1075
     44 H8          6.7238    3.8544    2.3332 H         1 <0>         0.1354
     45 H9          7.0611    5.8814    3.6796 H         1 <0>         0.1405
     46 H10         6.2302    1.5368    5.8771 H         1 <0>         0.1321
     47 H11         6.2077    1.5634    7.7127 H         1 <0>         0.3995
     48 H12         6.3108    2.3034    9.2175 H         1 <0>         0.4071
     49 H13         6.2129    6.4642    6.4946 H         1 <0>         0.3984
     50 H14        -1.3946   -2.8319    3.4313 H         1 <0>         0.1834
     51 H15        -3.3367   -4.0333    4.3380 H         1 <0>         0.1590
     52 H16        -3.8361   -1.2162    0.3114 H         1 <0>         0.1781
     53 H17         1.6965   -0.1858   -1.3277 H         1 <0>         0.0902
     54 H18         0.6728   -1.6398   -1.2503 H         1 <0>         0.0738
     55 H19         0.1165   -0.2064   -2.1470 H         1 <0>         0.0925
@<TRIPOS>BOND
     1    1    2 1
     2    1   37 1
     3    1   38 1
     4    1   39 1
     5    2    8 1
     6    2    3 1
     7    2   36 1
     8    3    4 2
     9    3    5 am
    10    5    6 am
    11    5   24 1
    12    6    7 2
    13    6    8 am
    14    8    9 1
    15    9   10 1
    16   10   11 1
    17   10   40 1
    18   10   41 1
    19   11   12 3
    20   12   13 1
    21   13   14 1
    22   13   42 1
    23   13   43 1
    24   14   19 ar
    25   14   15 ar
    26   15   16 ar
    27   15   44 1
    28   16   17 ar
    29   16   45 1
    30   17   18 ar
    31   17   23 1
    32   18   19 ar
    33   18   20 1
    34   19   46 1
    35   20   21 2
    36   20   22 am
    37   22   47 1
    38   22   48 1
    39   23   49 1
    40   24   29 ar
    41   24   25 ar
    42   25   26 ar
    43   25   50 1
    44   26   27 ar
    45   26   51 1
    46   27   28 ar
    47   27   34 1
    48   28   29 ar
    49   28   30 1
    50   29   52 1
    51   30   31 1
    52   30   32 1
    53   30   33 1
    54   34   35 3
    55   36   53 1
    56   36   54 1
    57   36   55 1
@<TRIPOS>MOLECULE
CHEMBL257379
   47    50     0     0     0
SMALL
USER_CHARGES

@<TRIPOS>ATOM
      1 C1         -0.0184    1.5028    0.0103 C.3       1 <0>        -0.1157
      2 C2          0.0021   -0.0041    0.0020 C.ar      1 <0>        -0.0842
      3 C3          0.0057   -0.6888   -1.1991 C.ar      1 <0>        -0.1123
      4 C4          0.0245   -2.0707   -1.2067 C.ar      1 <0>        -0.1133
      5 C5          0.0400   -2.7685   -0.0132 C.ar      1 <0>        -0.1004
      6 C6          0.0373   -2.0840    1.1875 C.ar      1 <0>        -0.1012
      7 C7          0.0229   -0.7015    1.1951 C.ar      1 <0>        -0.1034
      8 C8          0.0538   -2.8445    2.4885 C.3       1 <0>         0.1600
      9 H1         -0.3011   -2.2039    3.2958 H         1 <0>         0.1172
     10 C9          1.4798   -3.3249    2.7931 C.3       1 <0>         0.0579
     11 O1          1.9060   -4.1986    1.7455 O.3       1 <0>        -0.2937
     12 C10         1.0717   -5.2080    1.3832 C.ar      1 <0>         0.1485
     13 C11         1.5853   -6.3013    0.7068 C.ar      1 <0>        -0.1609
     14 C12         0.7476   -7.3413    0.3258 C.ar      1 <0>         0.1946
     15 C13        -0.6265   -7.2783    0.6299 C.ar      1 <0>        -0.1018
     16 C14        -1.1400   -6.1700    1.3152 C.ar      1 <0>        -0.0954
     17 C15        -0.2937   -5.1480    1.6872 C.ar      1 <0>         0.1150
     18 N1         -0.8051   -4.0362    2.3817 N.pl3     1 <0>        -0.6216
     19 C16        -2.1429   -4.0623    2.9782 C.3       1 <0>         0.0937
     20 C17        -3.1662   -3.5595    1.9579 C.3       1 <0>         0.4219
     21 F1         -3.1430   -4.3849    0.8286 F         1 <0>        -0.1753
     22 F2         -4.4437   -3.5844    2.5276 F         1 <0>        -0.1822
     23 F3         -2.8475   -2.2494    1.5847 F         1 <0>        -0.1744
     24 C18        -1.4953   -8.3805    0.2199 C.2       1 <0>        -0.0799
     25 C19        -0.9440   -9.4300   -0.4416 C.2       1 <0>        -0.1380
     26 C20         0.4373   -9.4465   -0.7210 C.2       1 <0>         0.5386
     27 O2          0.9117  -10.3992   -1.3159 O.2       1 <0>        -0.5195
     28 N2          1.2451   -8.4384   -0.3491 N.am      1 <0>        -0.6191
     29 H2          2.1913   -8.4823   -0.5580 H         1 <0>         0.4223
     30 C21        -2.9709   -8.3519    0.5245 C.3       1 <0>         0.5069
     31 F4         -3.5718   -9.5145    0.0301 F         1 <0>        -0.1673
     32 F5         -3.1600   -8.2818    1.9089 F         1 <0>        -0.1687
     33 F6         -3.5508   -7.2328   -0.0826 F         1 <0>        -0.1628
     34 H3          1.0042    1.8801    0.0026 H         1 <0>         0.0712
     35 H4         -0.5455    1.8639   -0.8728 H         1 <0>         0.0667
     36 H5         -0.5286    1.8543    0.9071 H         1 <0>         0.0663
     37 H6         -0.0064   -0.1437   -2.1314 H         1 <0>         0.1215
     38 H7          0.0266   -2.6056   -2.1449 H         1 <0>         0.1209
     39 H8          0.0540   -3.8484   -0.0191 H         1 <0>         0.1202
     40 H9          0.0246   -0.1666    2.1333 H         1 <0>         0.1216
     41 H10         2.1501   -2.4671    2.8487 H         1 <0>         0.1265
     42 H11         1.4897   -3.8607    3.7422 H         1 <0>         0.0815
     43 H12         2.6393   -6.3456    0.4755 H         1 <0>         0.1530
     44 H13        -2.1925   -6.1171    1.5513 H         1 <0>         0.1426
     45 H14        -2.3912   -5.0830    3.2691 H         1 <0>         0.1227
     46 H15        -2.1610   -3.4192    3.8581 H         1 <0>         0.1272
     47 H16        -1.5661  -10.2555   -0.7546 H         1 <0>         0.1727
@<TRIPOS>BOND
     1    1    2 1
     2    1   34 1
     3    1   35 1
     4    1   36 1
     5    2    7 ar
     6    2    3 ar
     7    3    4 ar
     8    3   37 1
     9    4    5 ar
    10    4   38 1
    11    5    6 ar
    12    5   39 1
    13    6    7 ar
    14    6    8 1
    15    7   40 1
    16    8    9 1
    17    8   18 1
    18    8   10 1
    19   10   11 1
    20   10   41 1
    21   10   42 1
    22   11   12 1
    23   12   17 ar
    24   12   13 ar
    25   13   14 ar
    26   13   43 1
    27   14   28 1
    28   14   15 ar
    29   15   16 ar
    30   15   24 1
    31   16   17 ar
    32   16   44 1
    33   17   18 1
    34   18   19 1
    35   19   20 1
    36   19   45 1
    37   19   46 1
    38   20   21 1
    39   20   22 1
    40   20   23 1
    41   24   25 2
    42   24   30 1
    43   25   26 1
    44   25   47 1
    45   26   27 2
    46   26   28 am
    47   28   29 1
    48   30   31 1
    49   30   32 1
    50   30   33 1
@<TRIPOS>MOLECULE
CHEMBL242469
   35    36     0     0     0
SMALL
USER_CHARGES

@<TRIPOS>ATOM
      1 C1         -0.0070    1.5195    0.0198 C.3       1 <0>        -0.1529
      2 C2          0.0047   -0.0103    0.0030 C.3       1 <0>         0.1322
      3 C3          0.8177   -0.5352   -1.1978 C.3       1 <0>        -0.1005
      4 C4          1.9437   -1.3153   -0.5577 C.2       1 <0>        -0.0437
      5 N1          1.8334   -1.2695    0.7064 N.2       1 <0>        -0.1399
      6 N2          0.7402   -0.5371    1.1646 N.pl3     1 <0>        -0.6244
      7 C5          3.0327   -2.0387   -1.3073 C.3       1 <0>         0.5569
      8 F1          3.9002   -2.6492   -0.3952 F         1 <0>        -0.1624
      9 F2          2.4623   -3.0137   -2.1326 F         1 <0>        -0.1637
     10 F3          3.7466   -1.1248   -2.0898 F         1 <0>        -0.1638
     11 C6         -1.4018   -0.5508   -0.0256 C.2       1 <0>         0.5221
     12 O1         -1.9135   -0.8541   -1.0825 O.2       1 <0>        -0.4960
     13 N3         -2.0909   -0.6972    1.1234 N.am      1 <0>        -0.6648
     14 C7         -3.4247   -1.1061    1.0898 C.ar      1 <0>         0.1708
     15 C8         -3.8464   -2.0195    0.1288 C.ar      1 <0>        -0.0901
     16 C9         -5.1615   -2.4253    0.0926 C.ar      1 <0>        -0.0467
     17 C10        -6.0735   -1.9184    1.0230 C.ar      1 <0>         0.0140
     18 C11        -5.6462   -1.0011    1.9868 C.ar      1 <0>        -0.1198
     19 C12        -4.3279   -0.6040    2.0206 C.ar      1 <0>        -0.0958
     20 C13        -6.6255   -0.4518    2.9920 C.3       1 <0>         0.5060
     21 F4         -5.9671    0.4403    3.8451 F         1 <0>        -0.1702
     22 F5         -7.6553    0.2176    2.3221 F         1 <0>        -0.1686
     23 F6         -7.1633   -1.5033    3.7418 F         1 <0>        -0.1687
     24 C14        -7.4422   -2.3377    0.9881 C.1       1 <0>         0.2295
     25 N4         -8.5281   -2.6704    0.9605 N.1       1 <0>        -0.3727
     26 H1          1.0178    1.8908    0.0127 H         1 <0>         0.0842
     27 H2         -0.5332    1.8885   -0.8606 H         1 <0>         0.0852
     28 H3         -0.5139    1.8692    0.9192 H         1 <0>         0.0734
     29 H4          0.2046   -1.1880   -1.8192 H         1 <0>         0.1231
     30 H5          1.2120    0.2942   -1.7849 H         1 <0>         0.1195
     31 H6          0.5033   -0.3969    2.0948 H         1 <0>         0.4428
     32 H7         -1.6598   -0.5182    1.9737 H         1 <0>         0.4157
     33 H8         -3.1414   -2.4104   -0.5899 H         1 <0>         0.1602
     34 H9         -5.4883   -3.1341   -0.6539 H         1 <0>         0.1540
     35 H10        -3.9961    0.1015    2.7679 H         1 <0>         0.1549
@<TRIPOS>BOND
     1    1    2 1
     2    1   26 1
     3    1   27 1
     4    1   28 1
     5    2    6 1
     6    2    3 1
     7    2   11 1
     8    3    4 1
     9    3   29 1
    10    3   30 1
    11    4    5 2
    12    4    7 1
    13    5    6 1
    14    6   31 1
    15    7    8 1
    16    7    9 1
    17    7   10 1
    18   11   12 2
    19   11   13 am
    20   13   14 1
    21   13   32 1
    22   14   19 ar
    23   14   15 ar
    24   15   16 ar
    25   15   33 1
    26   16   17 ar
    27   16   34 1
    28   17   18 ar
    29   17   24 1
    30   18   19 ar
    31   18   20 1
    32   19   35 1
    33   20   21 1
    34   20   22 1
    35   20   23 1
    36   24   25 3
@<TRIPOS>MOLECULE
CHEMBL403668
   38    41     0     0     0
SMALL
USER_CHARGES

@<TRIPOS>ATOM
      1 C1         -0.0065    1.4894    0.1245 C.3       1 <0>        -0.1285
      2 C2          0.0122   -0.0391    0.0595 C.3       1 <0>         0.1066
      3 C3         -1.3840   -0.7268    0.1336 C.3       1 <0>        -0.1394
      4 C4         -1.0362   -2.1579    0.6169 C.3       1 <0>        -0.1396
      5 C5          0.5147   -2.1069    0.7572 C.3       1 <0>         0.1056
      6 O1          0.7211   -0.7111    1.1512 O.3       1 <0>        -0.3594
      7 C6          1.0612   -2.0976   -0.7011 C.3       1 <0>        -0.1433
      8 H1          0.6425   -2.8856   -1.3272 H         1 <0>         0.1516
      9 C7          0.7243   -0.6445   -1.1863 C.3       1 <0>        -0.1448
     10 H2          0.1142   -0.6218   -2.0893 H         1 <0>         0.1501
     11 C8          2.0749    0.0176   -1.3351 C.2       1 <0>         0.5439
     12 O2          2.2578    1.1614   -1.6925 O.2       1 <0>        -0.4608
     13 N1          3.0372   -0.8532   -1.0108 N.am      1 <0>        -0.5436
     14 C9          2.5717   -2.1105   -0.6467 C.2       1 <0>         0.5457
     15 O3          3.2519   -3.0589   -0.3190 O.2       1 <0>        -0.4423
     16 C10         4.3970   -0.5274   -1.0518 C.ar      1 <0>         0.1474
     17 C11         5.1307   -0.4643    0.1280 C.ar      1 <0>        -0.0826
     18 C12         6.4694   -0.1436    0.0923 C.ar      1 <0>        -0.0534
     19 C13         7.0912    0.1183   -1.1318 C.ar      1 <0>         0.0182
     20 C14         6.3506    0.0535   -2.3157 C.ar      1 <0>        -0.0578
     21 C15         5.0123   -0.2733   -2.2718 C.ar      1 <0>        -0.0679
     22 I1          7.2751    0.4454   -4.1543 I         1 <0>        -0.0032
     23 C16         8.4830    0.4527   -1.1730 C.1       1 <0>         0.2348
     24 N2          9.5871    0.7179   -1.2057 N.1       1 <0>        -0.3724
     25 C17         1.1225   -3.1550    1.6914 C.3       1 <0>        -0.1284
     26 H3          1.0164    1.8657    0.1216 H         1 <0>         0.0741
     27 H4         -0.5410    1.8833   -0.7400 H         1 <0>         0.0853
     28 H5         -0.5083    1.8081    1.0381 H         1 <0>         0.0761
     29 H6         -2.0258   -0.2210    0.8550 H         1 <0>         0.0873
     30 H7         -1.8534   -0.7547   -0.8497 H         1 <0>         0.0857
     31 H8         -1.5044   -2.3650    1.5792 H         1 <0>         0.0873
     32 H9         -1.3327   -2.8989   -0.1255 H         1 <0>         0.0857
     33 H10         4.6498   -0.6668    1.0735 H         1 <0>         0.1468
     34 H11         7.0381   -0.0942    1.0091 H         1 <0>         0.1541
     35 H12         4.4401   -0.3276   -3.1861 H         1 <0>         0.1446
     36 H13         0.9024   -4.1524    1.3107 H         1 <0>         0.0859
     37 H14         2.2024   -3.0152    1.7407 H         1 <0>         0.0725
     38 H15         0.6959   -3.0443    2.6883 H         1 <0>         0.0781
@<TRIPOS>BOND
     1    1    2 1
     2    1   26 1
     3    1   27 1
     4    1   28 1
     5    2    6 1
     6    2    9 1
     7    2    3 1
     8    3    4 1
     9    3   29 1
    10    3   30 1
    11    4    5 1
    12    4   31 1
    13    4   32 1
    14    5    6 1
    15    5    7 1
    16    5   25 1
    17    7    8 1
    18    7   14 1
    19    7    9 1
    20    9   10 1
    21    9   11 1
    22   11   12 2
    23   11   13 am
    24   13   14 am
    25   13   16 1
    26   14   15 2
    27   16   21 ar
    28   16   17 ar
    29   17   18 ar
    30   17   33 1
    31   18   19 ar
    32   18   34 1
    33   19   20 ar
    34   19   23 1
    35   20   21 ar
    36   20   22 1
    37   21   35 1
    38   23   24 3
    39   25   36 1
    40   25   37 1
    41   25   38 1
@<TRIPOS>MOLECULE
CHEMBL403668__1
   38    41     0     0     0
SMALL
USER_CHARGES

@<TRIPOS>ATOM
      1 C1         -0.6139    1.7128    0.0922 C.3       1 <0>        -0.1258
      2 C2         -0.3109    0.2166   -0.0105 C.3       1 <0>         0.1125
      3 C3          0.4539   -0.2223   -1.2951 C.3       1 <0>        -0.1583
      4 C4          1.0963   -1.5670   -0.8690 C.3       1 <0>        -0.1591
      5 C5          0.6176   -1.7260    0.6052 C.3       1 <0>         0.1133
      6 O1          0.5546   -0.3280    1.0385 O.3       1 <0>        -0.3443
      7 C6         -0.8946   -2.0862    0.5122 C.3       1 <0>        -0.1509
      8 H1         -1.3021   -2.4934    1.4375 H         1 <0>         0.1487
      9 C7         -1.5486   -0.7227    0.0951 C.3       1 <0>        -0.1415
     10 H2         -2.3144   -0.3574    0.7793 H         1 <0>         0.1518
     11 C8         -2.0521   -1.0106   -1.3007 C.2       1 <0>         0.5447
     12 O2         -2.6221   -0.2156   -2.0167 O.2       1 <0>        -0.4569
     13 N1         -1.7710   -2.2777   -1.6244 N.am      1 <0>        -0.5410
     14 C9         -1.0998   -2.9872   -0.6840 C.2       1 <0>         0.5471
     15 O3         -0.7433   -4.1434   -0.7583 O.2       1 <0>        -0.4464
     16 C10        -2.1164   -2.8373   -2.8590 C.ar      1 <0>         0.1379
     17 C11        -1.4968   -2.3898   -4.0209 C.ar      1 <0>        -0.0840
     18 C12        -1.8341   -2.9376   -5.2384 C.ar      1 <0>        -0.0527
     19 C13        -2.8005   -3.9452   -5.3058 C.ar      1 <0>         0.0216
     20 C14        -3.4210   -4.3928   -4.1358 C.ar      1 <0>        -0.0577
     21 C15        -3.0738   -3.8429   -2.9205 C.ar      1 <0>        -0.0651
     22 I1         -4.8709   -5.9022   -4.2286 I         1 <0>        -0.0006
     23 C16        -3.1545   -4.5171   -6.5701 C.1       1 <0>         0.2332
     24 N2         -3.4352   -4.9707   -7.5730 N.1       1 <0>        -0.3697
     25 C17         1.4719   -2.6505    1.4749 C.3       1 <0>        -0.1251
     26 H3          0.3162    2.2773    0.0255 H         1 <0>         0.0775
     27 H4         -1.2761    2.0061   -0.7224 H         1 <0>         0.0857
     28 H5         -1.0976    1.9209    1.0466 H         1 <0>         0.0765
     29 H6         -0.2376   -0.3703   -2.1246 H         1 <0>         0.0754
     30 H7          1.2211    0.5068   -1.5559 H         1 <0>         0.0957
     31 H8          0.7248   -2.3851   -1.4860 H         1 <0>         0.0760
     32 H9          2.1836   -1.5081   -0.9177 H         1 <0>         0.0953
     33 H10        -0.7502   -1.6113   -3.9682 H         1 <0>         0.1452
     34 H11        -1.3528   -2.5888   -6.1401 H         1 <0>         0.1550
     35 H12        -3.5496   -4.1908   -2.0155 H         1 <0>         0.1460
     36 H13         2.4977   -2.2826    1.4975 H         1 <0>         0.0781
     37 H14         1.0704   -2.6696    2.4881 H         1 <0>         0.0765
     38 H15         1.4562   -3.6578    1.0588 H         1 <0>         0.0855
@<TRIPOS>BOND
     1    1    2 1
     2    1   26 1
     3    1   27 1
     4    1   28 1
     5    2    6 1
     6    2    9 1
     7    2    3 1
     8    3    4 1
     9    3   29 1
    10    3   30 1
    11    4    5 1
    12    4   31 1
    13    4   32 1
    14    5    6 1
    15    5    7 1
    16    5   25 1
    17    7    8 1
    18    7   14 1
    19    7    9 1
    20    9   10 1
    21    9   11 1
    22   11   12 2
    23   11   13 am
    24   13   14 am
    25   13   16 1
    26   14   15 2
    27   16   21 ar
    28   16   17 ar
    29   17   18 ar
    30   17   33 1
    31   18   19 ar
    32   18   34 1
    33   19   20 ar
    34   19   23 1
    35   20   21 ar
    36   20   22 1
    37   21   35 1
    38   23   24 3
    39   25   36 1
    40   25   37 1
    41   25   38 1
@<TRIPOS>MOLECULE
CHEMBL397920
   63    67     0     0     0
SMALL
USER_CHARGES

@<TRIPOS>ATOM
      1 C1         -0.0184    1.5055    0.0103 C.3       1 <0>        -0.1192
      2 C2          0.0021   -0.0041    0.0020 C.2       1 <0>        -0.0579
      3 C3          0.0080   -0.5993   -1.1885 C.2       1 <0>        -0.1661
      4 C4         -0.0686   -2.0883   -1.3560 C.3       1 <0>         0.2146
      5 N1          0.3118   -2.7749   -0.1232 N.pl3     1 <0>        -0.7337
      6 C5          0.0809   -2.1970    1.1205 C.ar      1 <0>         0.2263
      7 C6          0.0245   -0.7901    1.2418 C.ar      1 <0>        -0.0627
      8 C7          0.0699   -0.2584    2.5228 C.ar      1 <0>        -0.0278
      9 C8         -0.3333   -1.0649    3.6362 C.ar      1 <0>        -0.0852
     10 C9         -0.3713   -2.4356    3.4752 C.ar      1 <0>        -0.0519
     11 C10        -0.1074   -2.9949    2.2355 C.ar      1 <0>        -0.1849
     12 C11        -0.6924   -0.3559    4.8816 C.ar      1 <0>        -0.0868
     13 C12        -0.6417    1.0505    4.9010 C.ar      1 <0>         0.1162
     14 C13        -0.9996    1.7514    6.0402 C.ar      1 <0>        -0.1206
     15 C14        -1.3820    1.0791    7.1843 C.ar      1 <0>        -0.1015
     16 C15        -1.4140   -0.3051    7.1899 C.ar      1 <0>         0.0698
     17 C16        -1.0729   -1.0249    6.0448 C.ar      1 <0>         0.1079
     18 O1         -1.1205   -2.3796    6.1175 O.3       1 <0>        -0.3258
     19 C17         0.0705   -3.0490    6.5366 C.3       1 <0>         0.0319
     20 O2         -1.7794   -0.9718    8.3178 O.3       1 <0>        -0.4876
     21 O3         -0.2180    1.7494    3.8106 O.3       1 <0>        -0.2361
     22 C18         0.5621    1.0617    2.9283 C.2       1 <0>         0.1093
     23 C19         1.7656    1.5526    2.5309 C.2       1 <0>        -0.0762
     24 C20         2.1821    2.8350    2.9579 C.2       1 <0>        -0.0687
     25 C21         3.3693    3.5242    2.6627 C.2       1 <0>        -0.0965
     26 C22         3.5317    4.7908    3.2194 C.2       1 <0>        -0.1319
     27 C23         2.5598    5.2979    4.0068 C.2       1 <0>        -0.1949
     28 S1          1.3324    4.0032    4.0064 S.3       1 <0>         0.1204
     29 C24         4.3993    2.9329    1.8014 C.2       1 <0>         0.1959
     30 N2          4.2223    1.7501    1.2959 N.2       1 <0>        -0.3485
     31 O4          5.2164    1.1794    0.4646 O.3       1 <0>        -0.2396
     32 C25         4.8898   -0.1243   -0.0210 C.3       1 <0>         0.0458
     33 C26         5.6628    3.6983    1.5035 C.3       1 <0>        -0.1472
     34 C27         0.8744   -2.5208   -2.4852 C.3       1 <0>        -0.1544
     35 C28        -1.5026   -2.4746   -1.7372 C.3       1 <0>        -0.1601
     36 H1          1.0042    1.8828    0.0026 H         1 <0>         0.0726
     37 H2         -0.5456    1.8665   -0.8727 H         1 <0>         0.0678
     38 H3         -0.5286    1.8570    0.9071 H         1 <0>         0.0673
     39 H4          0.0729    0.0236   -2.0764 H         1 <0>         0.1273
     40 H5          0.7386   -3.6550   -0.1707 H         1 <0>         0.4046
     41 H6         -0.5990   -3.1045    4.2892 H         1 <0>         0.1447
     42 H7         -0.0507   -4.0699    2.1406 H         1 <0>         0.1289
     43 H8         -0.9845    2.8322    6.0320 H         1 <0>         0.1445
     44 H9         -1.6514    1.6323    8.0733 H         1 <0>         0.1466
     45 H10         0.8789   -2.8212    5.8420 H         1 <0>         0.0484
     46 H11         0.3444   -2.7115    7.5362 H         1 <0>         0.0548
     47 H12        -0.1035   -4.1250    6.5514 H         1 <0>         0.0984
     48 H13        -2.7284   -1.1461    8.3816 H         1 <0>         0.3927
     49 H14         2.4038    0.9635    1.8891 H         1 <0>         0.1799
     50 H15         4.4273    5.3616    3.0231 H         1 <0>         0.1408
     51 H16         2.5304    6.2533    4.5094 H         1 <0>         0.1888
     52 H17         3.9713   -0.0745   -0.6058 H         1 <0>         0.0481
     53 H18         5.7011   -0.4917   -0.6494 H         1 <0>         0.0948
     54 H19         4.7479   -0.8009    0.8216 H         1 <0>         0.0472
     55 H20         6.4158    3.4634    2.2558 H         1 <0>         0.0843
     56 H21         6.0339    3.4173    0.5179 H         1 <0>         0.0805
     57 H22         5.4526    4.7676    1.5213 H         1 <0>         0.0794
     58 H23         1.8958   -2.2338   -2.2355 H         1 <0>         0.0628
     59 H24         0.8208   -3.6024   -2.6091 H         1 <0>         0.0634
     60 H25         0.5768   -2.0335   -3.4137 H         1 <0>         0.0738
     61 H26        -1.7744   -1.9850   -2.6723 H         1 <0>         0.0671
     62 H27        -1.5671   -3.5556   -1.8609 H         1 <0>         0.0611
     63 H28        -2.1859   -2.1576   -0.9492 H         1 <0>         0.0572
@<TRIPOS>BOND
     1    1    2 1
     2    1   36 1
     3    1   37 1
     4    1   38 1
     5    2    7 1
     6    2    3 2
     7    3    4 1
     8    3   39 1
     9    4    5 1
    10    4   34 1
    11    4   35 1
    12    5    6 1
    13    5   40 1
    14    6   11 ar
    15    6    7 ar
    16    7    8 ar
    17    8   22 1
    18    8    9 ar
    19    9   10 ar
    20    9   12 1
    21   10   11 ar
    22   10   41 1
    23   11   42 1
    24   12   17 ar
    25   12   13 ar
    26   13   14 ar
    27   13   21 1
    28   14   15 ar
    29   14   43 1
    30   15   16 ar
    31   15   44 1
    32   16   17 ar
    33   16   20 1
    34   17   18 1
    35   18   19 1
    36   19   45 1
    37   19   46 1
    38   19   47 1
    39   20   48 1
    40   21   22 1
    41   22   23 2
    42   23   24 1
    43   23   49 1
    44   24   28 1
    45   24   25 2
    46   25   26 1
    47   25   29 1
    48   26   27 2
    49   26   50 1
    50   27   28 1
    51   27   51 1
    52   29   30 2
    53   29   33 1
    54   30   31 1
    55   31   32 1
    56   32   52 1
    57   32   53 1
    58   32   54 1
    59   33   55 1
    60   33   56 1
    61   33   57 1
    62   34   58 1
    63   34   59 1
    64   34   60 1
    65   35   61 1
    66   35   62 1
    67   35   63 1
@<TRIPOS>MOLECULE
CHEMBL335992
   36    38     0     0     0
SMALL
USER_CHARGES

@<TRIPOS>ATOM
      1 C1         -0.0184    1.5028    0.0103 C.3       1 <0>        -0.1162
      2 C2          0.0021   -0.0041    0.0020 C.2       1 <0>        -0.0620
      3 C3          0.0057   -0.6644   -1.1489 C.2       1 <0>        -0.1758
      4 C4          0.0117   -2.1694   -1.1826 C.3       1 <0>         0.2147
      5 N1          0.6720   -2.6954    0.0191 N.pl3     1 <0>        -0.7426
      6 C5          0.3651   -2.1145    1.2519 C.ar      1 <0>         0.2192
      7 C6          0.0243   -0.7528    1.2746 C.ar      1 <0>        -0.1121
      8 C7         -0.2870   -0.1395    2.4813 C.ar      1 <0>        -0.0571
      9 C8         -0.2496   -0.8831    3.6581 C.ar      1 <0>        -0.0773
     10 C9          0.0987   -2.2329    3.6244 C.ar      1 <0>        -0.0661
     11 C10         0.3958   -2.8447    2.4260 C.ar      1 <0>        -0.1737
     12 C11        -0.5811   -0.2366    4.9528 C.2       1 <0>        -0.0872
     13 C12        -0.5451   -0.9563    6.1359 C.2       1 <0>        -0.0668
     14 C13        -0.8725   -0.2521    7.2800 C.2       1 <0>        -0.1596
     15 S1         -1.2122    1.3756    6.6396 S.3       1 <0>         0.2735
     16 C14        -0.9262    1.0936    5.0088 C.2       1 <0>        -0.2326
     17 C15        -0.9251   -0.7135    8.6347 C.1       1 <0>         0.2931
     18 N2         -0.9668   -1.0795    9.7093 N.1       1 <0>        -0.3964
     19 C16         0.7649   -2.6466   -2.4260 C.3       1 <0>        -0.1528
     20 C17        -1.4289   -2.6820   -1.2361 C.3       1 <0>        -0.1581
     21 H1          1.0042    1.8801    0.0026 H         1 <0>         0.0710
     22 H2         -0.5455    1.8639   -0.8728 H         1 <0>         0.0678
     23 H3         -0.5286    1.8543    0.9071 H         1 <0>         0.0665
     24 H4          0.0047   -0.1127   -2.0773 H         1 <0>         0.1224
     25 H5          1.3051   -3.4278   -0.0416 H         1 <0>         0.4024
     26 H6         -0.5557    0.9062    2.5068 H         1 <0>         0.1264
     27 H7          0.1274   -2.8034    4.5410 H         1 <0>         0.1253
     28 H8          0.6647   -3.8905    2.4060 H         1 <0>         0.1255
     29 H9         -0.2783   -2.0025    6.1629 H         1 <0>         0.1517
     30 H10        -0.9988    1.7955    4.1911 H         1 <0>         0.1937
     31 H11         1.7905   -2.2791   -2.3929 H         1 <0>         0.0630
     32 H12         0.7701   -3.7363   -2.4518 H         1 <0>         0.0633
     33 H13         0.2706   -2.2643   -3.3192 H         1 <0>         0.0742
     34 H14        -1.9175   -2.2997   -2.1323 H         1 <0>         0.0657
     35 H15        -1.4261   -3.7718   -1.2606 H         1 <0>         0.0597
     36 H16        -1.9693   -2.3398   -0.3536 H         1 <0>         0.0571
@<TRIPOS>BOND
     1    1    2 1
     2    1   21 1
     3    1   22 1
     4    1   23 1
     5    2    7 1
     6    2    3 2
     7    3    4 1
     8    3   24 1
     9    4    5 1
    10    4   19 1
    11    4   20 1
    12    5    6 1
    13    5   25 1
    14    6   11 ar
    15    6    7 ar
    16    7    8 ar
    17    8    9 ar
    18    8   26 1
    19    9   10 ar
    20    9   12 1
    21   10   11 ar
    22   10   27 1
    23   11   28 1
    24   12   16 2
    25   12   13 1
    26   13   14 2
    27   13   29 1
    28   14   15 1
    29   14   17 1
    30   15   16 1
    31   16   30 1
    32   17   18 3
    33   19   31 1
    34   19   32 1
    35   19   33 1
    36   20   34 1
    37   20   35 1
    38   20   36 1
@<TRIPOS>MOLECULE
CHEMBL229160
   40    42     0     0     0
SMALL
USER_CHARGES

@<TRIPOS>ATOM
      1 C1          1.5055   -0.1843    1.0277 C.3       1 <0>        -0.1498
      2 C2          0.4579    0.1346   -0.0408 C.3       1 <0>        -0.1371
      3 C3          0.9573   -0.3471   -1.4044 C.3       1 <0>         0.1350
      4 H1          1.9487    0.0552   -1.6126 H         1 <0>         0.1113
      5 C4          0.9734   -1.8788   -1.4629 C.3       1 <0>         0.0856
      6 H2          0.4871   -2.3350   -0.6006 H         1 <0>         0.1159
      7 C5          2.3947   -2.4282   -1.6997 C.3       1 <0>         0.0975
      8 H3          2.8930   -2.6368   -0.7529 H         1 <0>         0.0830
      9 C6          2.1127   -3.7404   -2.4763 C.3       1 <0>        -0.1702
     10 C7          0.7103   -3.5442   -3.0924 C.3       1 <0>         0.1622
     11 N1          0.2783   -2.1757   -2.7419 N.am      1 <0>        -0.6387
     12 C8         -0.3822   -1.0787   -3.1182 C.2       1 <0>         0.7412
     13 O1         -1.2525   -1.0819   -3.9672 O.2       1 <0>        -0.5614
     14 N2          0.0100    0.0322   -2.4673 N.am      1 <0>        -0.5910
     15 C9         -0.4119    1.3320   -2.7498 C.ar      1 <0>         0.2117
     16 C10         0.3647    2.1523   -3.5624 C.ar      1 <0>        -0.1005
     17 C11        -0.0476    3.4350   -3.8442 C.ar      1 <0>        -0.0564
     18 C12        -1.2489    3.9142   -3.3129 C.ar      1 <0>        -0.0080
     19 C13        -2.0273    3.0871   -2.4964 C.ar      1 <0>         0.0067
     20 C14        -1.6098    1.8018   -2.2233 C.ar      1 <0>        -0.0632
     21 C15        -2.4500    0.9071   -1.3490 C.3       1 <0>        -0.1180
     22 Cl1        -3.5199    3.6757   -1.8335 Cl        1 <0>        -0.0393
     23 C16        -1.6809    5.2482   -3.6035 C.1       1 <0>         0.2471
     24 N3         -2.0236    6.3064   -3.8340 N.1       1 <0>        -0.3901
     25 O2          3.1662   -1.5205   -2.4889 O.3       1 <0>        -0.5533
     26 H4          1.6029   -1.2651    1.1299 H         1 <0>         0.0564
     27 H5          2.4652    0.2409    0.7340 H         1 <0>         0.0603
     28 H6          1.1946    0.2442    1.9806 H         1 <0>         0.0630
     29 H7         -0.4760   -0.3715    0.2035 H         1 <0>         0.0715
     30 H8          0.2898    1.2110   -0.0750 H         1 <0>         0.0745
     31 H9          2.8551   -3.8831   -3.2616 H         1 <0>         0.0886
     32 H10         2.1118   -4.5913   -1.7952 H         1 <0>         0.0929
     33 H11         0.7578   -3.6610   -4.1751 H         1 <0>         0.0804
     34 H12         0.0114   -4.2652   -2.6683 H         1 <0>         0.0764
     35 H13         1.2927    1.7821   -3.9724 H         1 <0>         0.1458
     36 H14         0.5563    4.0707   -4.4747 H         1 <0>         0.1505
     37 H15        -2.1533    1.0339   -0.3078 H         1 <0>         0.0816
     38 H16        -3.5013    1.1719   -1.4620 H         1 <0>         0.0791
     39 H17        -2.3032   -0.1317   -1.6446 H         1 <0>         0.0738
     40 H18         4.0682   -1.8214   -2.6654 H         1 <0>         0.3850
@<TRIPOS>BOND
     1    1    2 1
     2    1   26 1
     3    1   27 1
     4    1   28 1
     5    2    3 1
     6    2   29 1
     7    2   30 1
     8    3    4 1
     9    3   14 1
    10    3    5 1
    11    5    6 1
    12    5   11 1
    13    5    7 1
    14    7    8 1
    15    7    9 1
    16    7   25 1
    17    9   10 1
    18    9   31 1
    19    9   32 1
    20   10   11 1
    21   10   33 1
    22   10   34 1
    23   11   12 am
    24   12   13 2
    25   12   14 am
    26   14   15 1
    27   15   20 ar
    28   15   16 ar
    29   16   17 ar
    30   16   35 1
    31   17   18 ar
    32   17   36 1
    33   18   19 ar
    34   18   23 1
    35   19   20 ar
    36   19   22 1
    37   20   21 1
    38   21   37 1
    39   21   38 1
    40   21   39 1
    41   23   24 3
    42   25   40 1
@<TRIPOS>MOLECULE
CHEMBL1210152
   51    55     0     0     0
SMALL
USER_CHARGES

@<TRIPOS>ATOM
      1 C1          0.7998    0.6956    1.1581 C.3       1 <0>        -0.1404
      2 C2          0.5104   -0.7012    0.6047 C.3       1 <0>         0.1064
      3 C3         -0.9929   -1.0257    0.6293 C.3       1 <0>         0.1050
      4 N1         -1.1741   -2.3720    0.0605 N.pl3     1 <0>        -0.5979
      5 C4         -0.2766   -3.4454    0.5200 C.3       1 <0>         0.1087
      6 C5          1.1610   -2.8987    0.5071 C.3       1 <0>         0.1049
      7 O1          1.1907   -1.7303    1.3565 O.3       1 <0>        -0.3407
      8 C6          1.4570   -2.3623   -0.9110 C.3       1 <0>        -0.1378
      9 H1          0.9501   -2.9270   -1.6935 H         1 <0>         0.1513
     10 C7          1.0242   -0.8650   -0.8429 C.3       1 <0>        -0.1421
     11 H2          0.2747   -0.6087   -1.5917 H         1 <0>         0.1462
     12 C8          2.3193   -0.1003   -0.9978 C.2       1 <0>         0.5444
     13 O2          2.4234    1.1074   -1.0015 O.2       1 <0>        -0.4538
     14 N2          3.3326   -0.9641   -1.1292 N.am      1 <0>        -0.5445
     15 C9          2.9539   -2.2896   -1.1110 C.2       1 <0>         0.5443
     16 O3          3.6934   -3.2443   -1.2171 O.2       1 <0>        -0.4374
     17 C10         4.6603   -0.5537   -1.2896 C.ar      1 <0>         0.1376
     18 C11         5.4986   -0.4694   -0.1833 C.ar      1 <0>        -0.0641
     19 C12         6.8061   -0.0655   -0.3370 C.ar      1 <0>        -0.0576
     20 C13         7.2904    0.2596   -1.6072 C.ar      1 <0>         0.0447
     21 C14         6.4452    0.1732   -2.7164 C.ar      1 <0>        -0.1322
     22 C15         5.1399   -0.2367   -2.5553 C.ar      1 <0>        -0.0515
     23 C16         6.9622    0.5229   -4.0881 C.3       1 <0>         0.5072
     24 F1          5.9388    0.3599   -5.0278 F         1 <0>        -0.1683
     25 F2          7.3966    1.8528   -4.0976 F         1 <0>        -0.1669
     26 F3          8.0314   -0.3191   -4.4121 F         1 <0>        -0.1671
     27 C17         8.6493    0.6805   -1.7712 C.1       1 <0>         0.2258
     28 N3          9.7273    1.0144   -1.9013 N.1       1 <0>        -0.3610
     29 C18         2.1749   -3.9543    0.9527 C.3       1 <0>        -0.1397
     30 C19        -2.1609   -2.6217   -0.8796 C.ar      1 <0>         0.4542
     31 C20        -3.1322   -1.6596   -1.1603 C.ar      1 <0>        -0.2783
     32 C21        -4.0957   -1.9568   -2.1066 C.ar      1 <0>         0.2545
     33 N4         -4.0654   -3.1373   -2.7117 N.ar      1 <0>        -0.5542
     34 C22        -3.1342   -4.0237   -2.4233 C.ar      1 <0>         0.3649
     35 N5         -2.1942   -3.7800   -1.5326 N.ar      1 <0>        -0.5738
     36 Cl1        -5.3298   -0.8001   -2.4975 Cl        1 <0>        -0.0100
     37 H3          1.8737    0.8803    1.1348 H         1 <0>         0.0758
     38 H4          0.2895    1.4410    0.5480 H         1 <0>         0.0889
     39 H5          0.4421    0.7606    2.1857 H         1 <0>         0.0797
     40 H6         -1.3575   -1.0070    1.6563 H         1 <0>         0.0959
     41 H7         -1.5376   -0.2958    0.0304 H         1 <0>         0.1033
     42 H8         -0.5480   -3.7448    1.5323 H         1 <0>         0.0885
     43 H9         -0.3516   -4.3012   -0.1509 H         1 <0>         0.1167
     44 H10         5.1236   -0.7208    0.7979 H         1 <0>         0.1521
     45 H11         7.4563    0.0004    0.5228 H         1 <0>         0.1600
     46 H12         4.4871   -0.3077   -3.4127 H         1 <0>         0.1544
     47 H13         2.1371   -4.8046    0.2718 H         1 <0>         0.0898
     48 H14         3.1762   -3.5239    0.9413 H         1 <0>         0.0728
     49 H15         1.9336   -4.2864    1.9625 H         1 <0>         0.0801
     50 H16        -3.1315   -0.7072   -0.6511 H         1 <0>         0.1534
     51 H17        -3.1388   -4.9750   -2.9346 H         1 <0>         0.2079
@<TRIPOS>BOND
     1    1    2 1
     2    1   37 1
     3    1   38 1
     4    1   39 1
     5    2    7 1
     6    2   10 1
     7    2    3 1
     8    3    4 1
     9    3   40 1
    10    3   41 1
    11    4    5 1
    12    4   30 1
    13    5    6 1
    14    5   42 1
    15    5   43 1
    16    6    7 1
    17    6    8 1
    18    6   29 1
    19    8    9 1
    20    8   15 1
    21    8   10 1
    22   10   11 1
    23   10   12 1
    24   12   13 2
    25   12   14 am
    26   14   15 am
    27   14   17 1
    28   15   16 2
    29   17   22 ar
    30   17   18 ar
    31   18   19 ar
    32   18   44 1
    33   19   20 ar
    34   19   45 1
    35   20   21 ar
    36   20   27 1
    37   21   22 ar
    38   21   23 1
    39   22   46 1
    40   23   24 1
    41   23   25 1
    42   23   26 1
    43   27   28 3
    44   29   47 1
    45   29   48 1
    46   29   49 1
    47   30   35 ar
    48   30   31 ar
    49   31   32 ar
    50   31   50 1
    51   32   33 ar
    52   32   36 1
    53   33   34 ar
    54   34   35 ar
    55   34   51 1
@<TRIPOS>MOLECULE
CHEMBL471876
   37    39     0     0     0
SMALL
USER_CHARGES

@<TRIPOS>ATOM
      1 C1          0.5074    2.0231    0.6859 C.ar      1 <0>        -0.1164
      2 C2          1.7911    2.4605    0.4135 C.ar      1 <0>        -0.1202
      3 C3          2.7900    1.5486    0.1392 C.ar      1 <0>        -0.1059
      4 C4          2.5034    0.1847    0.1370 C.ar      1 <0>        -0.0449
      5 C5          1.2082   -0.2503    0.4121 C.ar      1 <0>        -0.0923
      6 C6          0.2172    0.6706    0.6851 C.ar      1 <0>        -0.1200
      7 C7          3.5726   -0.8002   -0.1576 C.ar      1 <0>        -0.0653
      8 C8          4.3824   -0.6392   -1.2795 C.ar      1 <0>        -0.0704
      9 C9          5.3759   -1.5583   -1.5493 C.ar      1 <0>        -0.1431
     10 C10         5.5712   -2.6405   -0.7091 C.ar      1 <0>        -0.0776
     11 C11         4.7738   -2.8100    0.4065 C.ar      1 <0>        -0.1929
     12 C12         3.7759   -1.8914    0.6927 C.ar      1 <0>         0.1268
     13 O1          2.9952   -2.0535    1.7923 O.3       1 <0>        -0.2453
     14 C13         3.2338   -3.1248    2.5909 C.ar      1 <0>         0.1148
     15 C14         2.5799   -4.3278    2.3505 C.ar      1 <0>        -0.0935
     16 C15         2.8190   -5.4171    3.1583 C.ar      1 <0>        -0.0542
     17 C16         3.7211   -5.3121    4.2209 C.ar      1 <0>         0.0300
     18 C17         4.3767   -4.1011    4.4587 C.ar      1 <0>        -0.1273
     19 C18         4.1354   -3.0177    3.6430 C.ar      1 <0>        -0.0788
     20 C19         5.3503   -3.9821    5.6029 C.3       1 <0>         0.5058
     21 F1          5.8735   -2.6851    5.6371 F         1 <0>        -0.1675
     22 F2          4.6901   -4.2506    6.8068 F         1 <0>        -0.1679
     23 F3          6.3910   -4.9003    5.4270 F         1 <0>        -0.1684
     24 C20         3.9724   -6.4422    5.0636 C.1       1 <0>         0.2268
     25 N1          4.1718   -7.3387    5.7322 N.1       1 <0>        -0.3655
     26 H1         -0.2702    2.7400    0.9044 H         1 <0>         0.1222
     27 H2          2.0120    3.5177    0.4152 H         1 <0>         0.1239
     28 H3          3.7918    1.8912   -0.0737 H         1 <0>         0.1231
     29 H4          0.9804   -1.3060    0.4114 H         1 <0>         0.1218
     30 H5         -0.7867    0.3346    0.8988 H         1 <0>         0.1234
     31 H6          4.2327    0.2039   -1.9377 H         1 <0>         0.1349
     32 H7          6.0030   -1.4328   -2.4196 H         1 <0>         0.1303
     33 H8          6.3504   -3.3561   -0.9265 H         1 <0>         0.1300
     34 H9          4.9310   -3.6565    1.0585 H         1 <0>         0.1297
     35 H10         1.8831   -4.4081    1.5293 H         1 <0>         0.1561
     36 H11         2.3101   -6.3511    2.9713 H         1 <0>         0.1578
     37 H12         4.6447   -2.0826    3.8236 H         1 <0>         0.1599
@<TRIPOS>BOND
     1    1    6 ar
     2    1    2 ar
     3    1   26 1
     4    2    3 ar
     5    2   27 1
     6    3    4 ar
     7    3   28 1
     8    4    5 ar
     9    4    7 1
    10    5    6 ar
    11    5   29 1
    12    6   30 1
    13    7   12 ar
    14    7    8 ar
    15    8    9 ar
    16    8   31 1
    17    9   10 ar
    18    9   32 1
    19   10   11 ar
    20   10   33 1
    21   11   12 ar
    22   11   34 1
    23   12   13 1
    24   13   14 1
    25   14   19 ar
    26   14   15 ar
    27   15   16 ar
    28   15   35 1
    29   16   17 ar
    30   16   36 1
    31   17   18 ar
    32   17   24 1
    33   18   19 ar
    34   18   20 1
    35   19   37 1
    36   20   21 1
    37   20   22 1
    38   20   23 1
    39   24   25 3
@<TRIPOS>MOLECULE
CHEMBL34824
   52    56     0     0     0
SMALL
USER_CHARGES

@<TRIPOS>ATOM
      1 C1          0.5895    0.9998   -0.0859 C.3       1 <0>        -0.1466
      2 C2          0.3962   -0.5281   -0.2827 C.3       1 <0>        -0.0984
      3 C3         -1.0203   -0.8036    0.0588 C.ar      1 <0>        -0.0963
      4 C4         -1.4096   -1.0266    1.3793 C.ar      1 <0>         0.2051
      5 C5         -2.7340   -1.2654    1.7107 C.ar      1 <0>        -0.1498
      6 C6         -3.6592   -1.4525    0.7150 C.ar      1 <0>        -0.0691
      7 C7         -3.3545   -1.3376   -0.5960 C.ar      1 <0>        -0.0633
      8 C8         -2.0348   -0.9332   -0.9485 C.ar      1 <0>        -0.0418
      9 C9         -1.8125   -0.6976   -2.4005 C.2       1 <0>         0.0925
     10 C10        -1.0467    0.3015   -2.9101 C.2       1 <0>        -0.1305
     11 C11        -0.7551    0.3427   -4.3518 C.ar      1 <0>        -0.0233
     12 C12        -0.4929    1.5641   -4.9812 C.ar      1 <0>        -0.1169
     13 C13        -0.2204    1.5959   -6.3324 C.ar      1 <0>        -0.0918
     14 C14        -0.2061    0.4235   -7.0674 C.ar      1 <0>        -0.1518
     15 C15        -0.4647   -0.7914   -6.4522 C.ar      1 <0>         0.0973
     16 C16        -0.7332   -0.8393   -5.0980 C.ar      1 <0>        -0.1302
     17 F1         -0.4492   -1.9312   -7.1773 F         1 <0>        -0.1387
     18 O1         -2.4169   -1.5223   -3.2673 O.3       1 <0>        -0.2220
     19 C17        -3.7779   -1.5704   -3.0485 C.ar      1 <0>         0.0861
     20 C18        -4.3369   -1.5127   -1.7248 C.ar      1 <0>        -0.0853
     21 C19        -5.6746   -1.5976   -1.5200 C.ar      1 <0>        -0.0777
     22 C20        -6.4884   -1.7297   -2.5701 C.ar      1 <0>        -0.1304
     23 C21        -5.9870   -1.9065   -3.8039 C.ar      1 <0>        -0.0975
     24 C22        -4.6776   -1.8799   -4.1130 C.ar      1 <0>        -0.1137
     25 N1         -0.4141   -1.1366    2.3607 N.pl3     1 <0>        -0.7400
     26 C23         0.9509   -1.5569    2.0605 C.3       1 <0>         0.1501
     27 C24         1.3600   -1.1757    0.6762 C.2       1 <0>         0.3782
     28 O2          2.4809   -1.3480    0.2919 O.2       1 <0>        -0.4332
     29 C25         1.9149   -1.0472    3.0666 C.3       1 <0>        -0.1549
     30 C26         0.9760   -3.1106    2.1201 C.3       1 <0>        -0.1597
     31 H1          1.6277    1.2636   -0.2875 H         1 <0>         0.0674
     32 H2         -0.0625    1.5399   -0.7724 H         1 <0>         0.0729
     33 H3          0.3390    1.2685    0.9403 H         1 <0>         0.0641
     34 H4          0.6571   -0.7024   -1.3185 H         1 <0>         0.1183
     35 H5         -2.9993   -1.4213    2.7568 H         1 <0>         0.1370
     36 H6         -4.7283   -1.5235    0.9857 H         1 <0>         0.1296
     37 H7         -0.6518    1.0658   -2.2573 H         1 <0>         0.1490
     38 H8         -0.5042    2.4806   -4.4099 H         1 <0>         0.1313
     39 H9         -0.0179    2.5387   -6.8187 H         1 <0>         0.1350
     40 H10         0.0073    0.4552   -8.1256 H         1 <0>         0.1353
     41 H11        -0.9303   -1.7866   -4.6181 H         1 <0>         0.1438
     42 H12        -6.0976   -1.4816   -0.4848 H         1 <0>         0.1372
     43 H13        -7.5883   -1.8214   -2.3986 H         1 <0>         0.1328
     44 H14        -6.6714   -1.9954   -4.6686 H         1 <0>         0.1249
     45 H15        -4.3427   -1.9477   -5.1023 H         1 <0>         0.1346
     46 H16        -0.6591   -0.8769    3.2540 H         1 <0>         0.4007
     47 H17         1.6472   -1.4284    4.0521 H         1 <0>         0.0783
     48 H18         2.9199   -1.3812    2.8086 H         1 <0>         0.0870
     49 H19         1.8859    0.0423    3.0782 H         1 <0>         0.0669
     50 H20         0.2798   -3.5138    1.3847 H         1 <0>         0.0614
     51 H21         1.9827   -3.4664    1.9007 H         1 <0>         0.0714
     52 H22         0.6832   -3.4408    3.1168 H         1 <0>         0.0746
@<TRIPOS>BOND
     1    1    2 1
     2    1   31 1
     3    1   32 1
     4    1   33 1
     5    2   27 1
     6    2    3 1
     7    2   34 1
     8    3    8 ar
     9    3    4 ar
    10    4    5 ar
    11    4   25 1
    12    5    6 ar
    13    5   35 1
    14    6    7 ar
    15    6   36 1
    16    7   20 1
    17    7    8 ar
    18    8    9 1
    19    9   10 2
    20    9   18 1
    21   10   11 1
    22   10   37 1
    23   11   16 ar
    24   11   12 ar
    25   12   13 ar
    26   12   38 1
    27   13   14 ar
    28   13   39 1
    29   14   15 ar
    30   14   40 1
    31   15   16 ar
    32   15   17 1
    33   16   41 1
    34   18   19 1
    35   19   24 ar
    36   19   20 ar
    37   20   21 ar
    38   21   22 ar
    39   21   42 1
    40   22   23 ar
    41   22   43 1
    42   23   24 ar
    43   23   44 1
    44   24   45 1
    45   25   26 1
    46   25   46 1
    47   26   27 1
    48   26   29 1
    49   26   30 1
    50   27   28 2
    51   29   47 1
    52   29   48 1
    53   29   49 1
    54   30   50 1
    55   30   51 1
    56   30   52 1
@<TRIPOS>MOLECULE
CHEMBL34824__1
   52    56     0     0     0
SMALL
USER_CHARGES

@<TRIPOS>ATOM
      1 C1          0.2274    2.0505   -0.3221 C.3       1 <0>        -0.1476
      2 C2          0.2465    0.5413   -0.0715 C.3       1 <0>        -0.1116
      3 C3          0.4897   -0.1811   -1.3726 C.ar      1 <0>        -0.1036
      4 C4          1.7106   -0.7636   -1.6705 C.ar      1 <0>         0.2188
      5 C5          1.8992   -1.4106   -2.8945 C.ar      1 <0>        -0.1635
      6 C6          0.8797   -1.4924   -3.8201 C.ar      1 <0>        -0.0594
      7 C7         -0.3502   -0.9232   -3.5309 C.ar      1 <0>        -0.0710
      8 C8         -0.5439   -0.2598   -2.2998 C.ar      1 <0>        -0.0389
      9 C9         -1.8725    0.3371   -2.0528 C.2       1 <0>         0.1215
     10 C10        -2.3303    0.5365   -0.7969 C.2       1 <0>        -0.1544
     11 C11        -3.2876    1.6207   -0.5262 C.ar      1 <0>        -0.0143
     12 C12        -3.6361    2.5198   -1.5396 C.ar      1 <0>        -0.1169
     13 C13        -4.5336    3.5336   -1.2796 C.ar      1 <0>        -0.0892
     14 C14        -5.0902    3.6643   -0.0193 C.ar      1 <0>        -0.1552
     15 C15        -4.7508    2.7781    0.9909 C.ar      1 <0>         0.0999
     16 C16        -3.8577    1.7538    0.7434 C.ar      1 <0>        -0.1472
     17 F1         -5.2984    2.9132    2.2185 F         1 <0>        -0.1396
     18 O1         -2.6192    0.6798   -3.1425 O.3       1 <0>        -0.2388
     19 C17        -2.6057   -0.1527   -4.2154 C.ar      1 <0>         0.1169
     20 C18        -1.4952   -0.9731   -4.4646 C.ar      1 <0>        -0.0983
     21 C19        -1.4853   -1.8152   -5.5710 C.ar      1 <0>        -0.0788
     22 C20        -2.5737   -1.8436   -6.4206 C.ar      1 <0>        -0.1372
     23 C21        -3.6710   -1.0374   -6.1729 C.ar      1 <0>        -0.0857
     24 C22        -3.6906   -0.1966   -5.0768 C.ar      1 <0>        -0.1312
     25 N1          2.7792   -0.7432   -0.7690 N.pl3     1 <0>        -0.7313
     26 C23         2.7672    0.1908    0.3642 C.3       1 <0>         0.1338
     27 C24         1.3500    0.2070    0.9056 C.2       1 <0>         0.3669
     28 O2          1.1144   -0.0361    2.0647 O.2       1 <0>        -0.4291
     29 C25         3.7351   -0.2891    1.4476 C.3       1 <0>        -0.1491
     30 C26         3.1619    1.5914   -0.1085 C.3       1 <0>        -0.1639
     31 H1          1.1047    2.3333   -0.9038 H         1 <0>         0.0726
     32 H2         -0.6749    2.3159   -0.8731 H         1 <0>         0.0765
     33 H3          0.2387    2.5774    0.6320 H         1 <0>         0.0661
     34 H4         -0.7123    0.2298    0.3430 H         1 <0>         0.1266
     35 H5          2.8583   -1.8533   -3.1195 H         1 <0>         0.1320
     36 H6          1.0386   -1.9961   -4.7621 H         1 <0>         0.1348
     37 H7         -1.9935   -0.0999    0.0080 H         1 <0>         0.1593
     38 H8         -3.2026    2.4203   -2.5238 H         1 <0>         0.1420
     39 H9         -4.8030    4.2280   -2.0617 H         1 <0>         0.1335
     40 H10        -5.7921    4.4610    0.1782 H         1 <0>         0.1345
     41 H11        -3.5968    1.0607    1.5295 H         1 <0>         0.1364
     42 H12        -0.6294   -2.4445   -5.7655 H         1 <0>         0.1311
     43 H13        -2.5684   -2.4965   -7.2809 H         1 <0>         0.1304
     44 H14        -4.5190   -1.0665   -6.8411 H         1 <0>         0.1341
     45 H15        -4.5517    0.4286   -4.8920 H         1 <0>         0.1363
     46 H16         3.5288   -1.3465   -0.8920 H         1 <0>         0.4094
     47 H17         4.7433   -0.3415    1.0366 H         1 <0>         0.0719
     48 H18         3.7196    0.4096    2.2841 H         1 <0>         0.0808
     49 H19         3.4320   -1.2772    1.7939 H         1 <0>         0.0687
     50 H20         2.5981    1.8441   -1.0064 H         1 <0>         0.0761
     51 H21         2.9401    2.3154    0.6756 H         1 <0>         0.0715
     52 H22         4.2287    1.6124   -0.3313 H         1 <0>         0.0736
@<TRIPOS>BOND
     1    1    2 1
     2    1   31 1
     3    1   32 1
     4    1   33 1
     5    2   27 1
     6    2    3 1
     7    2   34 1
     8    3    8 ar
     9    3    4 ar
    10    4    5 ar
    11    4   25 1
    12    5    6 ar
    13    5   35 1
    14    6    7 ar
    15    6   36 1
    16    7   20 1
    17    7    8 ar
    18    8    9 1
    19    9   10 2
    20    9   18 1
    21   10   11 1
    22   10   37 1
    23   11   16 ar
    24   11   12 ar
    25   12   13 ar
    26   12   38 1
    27   13   14 ar
    28   13   39 1
    29   14   15 ar
    30   14   40 1
    31   15   16 ar
    32   15   17 1
    33   16   41 1
    34   18   19 1
    35   19   24 ar
    36   19   20 ar
    37   20   21 ar
    38   21   22 ar
    39   21   42 1
    40   22   23 ar
    41   22   43 1
    42   23   24 ar
    43   23   44 1
    44   24   45 1
    45   25   26 1
    46   25   46 1
    47   26   27 1
    48   26   29 1
    49   26   30 1
    50   27   28 2
    51   29   47 1
    52   29   48 1
    53   29   49 1
    54   30   50 1
    55   30   51 1
    56   30   52 1
@<TRIPOS>MOLECULE
CHEMBL449371
   27    28     0     0     0
SMALL
USER_CHARGES

@<TRIPOS>ATOM
      1 C1         -0.0168    1.3882    0.0097 C.ar      1 <0>        -0.1064
      2 C2          1.1647    2.0939    0.0022 C.ar      1 <0>        -0.0451
      3 C3          2.3849    1.4113   -0.0131 C.ar      1 <0>         0.0144
      4 C4          2.4005    0.0128   -0.0207 C.ar      1 <0>        -0.1186
      5 C5          1.2159   -0.6869   -0.0131 C.ar      1 <0>        -0.0563
      6 C6          0.0021   -0.0041    0.0020 C.ar      1 <0>        -0.0592
      7 S1         -1.5128   -0.9039    0.0122 S.3       1 <0>        -0.0750
      8 C7         -2.7889    0.3853    0.0317 C.3       1 <0>        -0.1141
      9 C8         -3.1646    0.8587    1.4458 C.3       1 <0>        -0.1293
     10 C9         -4.6236    0.8942    0.9610 C.3       1 <0>        -0.1376
     11 C10        -4.2210   -0.1638   -0.0799 C.3       1 <0>        -0.1099
     12 C11         3.7134   -0.7269   -0.0377 C.3       1 <0>         0.5054
     13 F1          3.4722   -2.1049   -0.0426 F         1 <0>        -0.1685
     14 F2          4.4320   -0.3751   -1.1853 F         1 <0>        -0.1693
     15 F3          4.4547   -0.3873    1.0992 F         1 <0>        -0.1693
     16 C12         3.6161    2.1426   -0.0214 C.1       1 <0>         0.2307
     17 N1          4.5928    2.7227   -0.0280 N.1       1 <0>        -0.3752
     18 H1         -0.9596    1.9148    0.0260 H         1 <0>         0.1446
     19 H2          1.1494    3.1738    0.0077 H         1 <0>         0.1508
     20 H3          1.2272   -1.7669   -0.0190 H         1 <0>         0.1557
     21 H4         -2.5783    1.1998   -0.6613 H         1 <0>         0.1160
     22 H5         -2.9796    0.1134    2.2193 H         1 <0>         0.0972
     23 H6         -2.7644    1.8406    1.6982 H         1 <0>         0.0765
     24 H7         -5.3380    0.5304    1.6995 H         1 <0>         0.0794
     25 H8         -4.9151    1.8488    0.5230 H         1 <0>         0.0870
     26 H9         -4.6735   -0.0073   -1.0591 H         1 <0>         0.0829
     27 H10        -4.3247   -1.1886    0.2766 H         1 <0>         0.0932
@<TRIPOS>BOND
     1    1    6 ar
     2    1    2 ar
     3    1   18 1
     4    2    3 ar
     5    2   19 1
     6    3    4 ar
     7    3   16 1
     8    4    5 ar
     9    4   12 1
    10    5    6 ar
    11    5   20 1
    12    6    7 1
    13    7    8 1
    14    8   11 1
    15    8    9 1
    16    8   21 1
    17    9   10 1
    18    9   22 1
    19    9   23 1
    20   10   11 1
    21   10   24 1
    22   10   25 1
    23   11   26 1
    24   11   27 1
    25   12   13 1
    26   12   14 1
    27   12   15 1
    28   16   17 3
@<TRIPOS>MOLECULE
CHEMBL263660
   47    51     0     0     0
SMALL
USER_CHARGES

@<TRIPOS>ATOM
      1 C1          7.3128   -7.1864   -0.6509 C.ar      1 <0>        -0.1161
      2 C2          8.2179   -6.1280   -0.6363 C.ar      1 <0>        -0.1043
      3 C3          7.7885   -4.8411   -0.4988 C.ar      1 <0>        -0.1211
      4 C4          6.4203   -4.5786   -0.3707 C.ar      1 <0>        -0.0090
      5 C5          5.4968   -5.6522   -0.3851 C.ar      1 <0>        -0.0674
      6 C6          5.9746   -6.9663   -0.5285 C.ar      1 <0>        -0.1028
      7 C7          4.1234   -5.3843   -0.2572 C.ar      1 <0>        -0.0578
      8 C8          3.6737   -4.1061   -0.1198 C.ar      1 <0>        -0.1400
      9 C9          4.5401   -3.0232   -0.1001 C.ar      1 <0>        -0.0494
     10 C10         5.9141   -3.2140   -0.2214 C.ar      1 <0>        -0.1705
     11 C11         6.8338   -2.0719   -0.2007 C.2       1 <0>         0.3717
     12 O1          8.0326   -2.2583   -0.2045 O.2       1 <0>        -0.4215
     13 C12         6.2898   -0.6667   -0.1746 C.3       1 <0>         0.0649
     14 N1          7.4016    0.2871   -0.1574 N.pl3     1 <0>        -0.5498
     15 C13         7.8881    0.7302   -1.3845 C.ar      1 <0>         0.1971
     16 C14         7.6882   -0.0617   -2.5107 C.ar      1 <0>        -0.1513
     17 C15         8.1524    0.3502   -3.7452 C.ar      1 <0>        -0.0743
     18 C16         8.8203    1.5536   -3.8712 C.ar      1 <0>        -0.1339
     19 C17         9.0265    2.3481   -2.7584 C.ar      1 <0>        -0.0556
     20 C18         8.5645    1.9398   -1.5152 C.ar      1 <0>        -0.1564
     21 S1          8.8451    2.9605   -0.1074 S.3       1 <0>         0.0377
     22 C19         8.5707    1.8846    1.2601 C.ar      1 <0>        -0.1220
     23 C20         7.8878    0.6860    1.0848 C.ar      1 <0>         0.1979
     24 C21         7.6854   -0.1441    2.1821 C.ar      1 <0>        -0.1075
     25 C22         8.1506    0.2231    3.4308 C.ar      1 <0>        -0.1437
     26 C23         8.8210    1.4194    3.5991 C.ar      1 <0>        -0.0859
     27 C24         9.0367    2.2437    2.5164 C.ar      1 <0>        -0.0598
     28 C25         7.9253   -0.6842    4.6128 C.3       1 <0>         0.5098
     29 F1          9.0000   -1.5720    4.7308 F         1 <0>        -0.1723
     30 F2          7.8249    0.0839    5.7778 F         1 <0>        -0.1727
     31 F3          6.7418   -1.4067    4.4272 F         1 <0>        -0.1765
     32 H1          7.6775   -8.1965   -0.7655 H         1 <0>         0.1264
     33 H2          9.2744   -6.3293   -0.7348 H         1 <0>         0.1262
     34 H3          8.5006   -4.0291   -0.4886 H         1 <0>         0.1570
     35 H4          5.2843   -7.7968   -0.5411 H         1 <0>         0.1310
     36 H5          3.4167   -6.2009   -0.2682 H         1 <0>         0.1332
     37 H6          2.6124   -3.9308   -0.0238 H         1 <0>         0.1328
     38 H7          4.1458   -2.0238    0.0106 H         1 <0>         0.1335
     39 H8          5.6792   -0.4970   -1.0615 H         1 <0>         0.1249
     40 H9          5.6797   -0.5298    0.7182 H         1 <0>         0.1214
     41 H10         7.1677   -1.0035   -2.4195 H         1 <0>         0.1233
     42 H11         7.9932   -0.2705   -4.6146 H         1 <0>         0.1325
     43 H12         9.1811    1.8729   -4.8378 H         1 <0>         0.1344
     44 H13         9.5483    3.2885   -2.8570 H         1 <0>         0.1360
     45 H14         7.1623   -1.0808    2.0579 H         1 <0>         0.1346
     46 H15         9.1816    1.7041    4.5765 H         1 <0>         0.1470
     47 H16         9.5615    3.1781    2.6495 H         1 <0>         0.1482
@<TRIPOS>BOND
     1    1    6 ar
     2    1    2 ar
     3    1   32 1
     4    2    3 ar
     5    2   33 1
     6    3    4 ar
     7    3   34 1
     8    4   10 ar
     9    4    5 ar
    10    5    6 ar
    11    5    7 ar
    12    6   35 1
    13    7    8 ar
    14    7   36 1
    15    8    9 ar
    16    8   37 1
    17    9   10 ar
    18    9   38 1
    19   10   11 1
    20   11   12 2
    21   11   13 1
    22   13   14 1
    23   13   39 1
    24   13   40 1
    25   14   23 1
    26   14   15 1
    27   15   20 ar
    28   15   16 ar
    29   16   17 ar
    30   16   41 1
    31   17   18 ar
    32   17   42 1
    33   18   19 ar
    34   18   43 1
    35   19   20 ar
    36   19   44 1
    37   20   21 1
    38   21   22 1
    39   22   27 ar
    40   22   23 ar
    41   23   24 ar
    42   24   25 ar
    43   24   45 1
    44   25   26 ar
    45   25   28 1
    46   26   27 ar
    47   26   46 1
    48   27   47 1
    49   28   29 1
    50   28   30 1
    51   28   31 1
@<TRIPOS>MOLECULE
CHEMBL235661
   80    84     0     0     0
SMALL
USER_CHARGES

@<TRIPOS>ATOM
      1 C1         -0.0981    1.5258   -0.0410 C.3       1 <0>        -0.1552
      2 C2         -0.0847   -0.0041   -0.0540 C.3       1 <0>        -0.0279
      3 C3         -1.5210   -0.4507   -0.1782 C.3       1 <0>        -0.1095
      4 C4         -1.7694   -1.8013    0.4927 C.3       1 <0>        -0.1662
      5 C5         -1.3101   -1.6880    1.9341 C.2       1 <0>         0.3877
      6 O1         -2.0283   -1.9939    2.8629 O.2       1 <0>        -0.4567
      7 C6          0.0560   -1.1865    2.1395 C.2       1 <0>        -0.2398
      8 C7          0.6181   -0.4383    1.1942 C.2       1 <0>        -0.0171
      9 C8          2.0653   -0.0091    1.3683 C.3       1 <0>        -0.0958
     10 C9          2.8314   -0.4328    0.1099 C.3       1 <0>        -0.0767
     11 H1          3.8568   -0.0680    0.1703 H         1 <0>         0.0785
     12 C10         2.1571    0.1510   -1.1318 C.3       1 <0>        -0.0733
     13 H2          2.1076    1.2365   -1.0459 H         1 <0>         0.0875
     14 C11         0.7368   -0.4221   -1.2742 C.3       1 <0>        -0.0652
     15 H3          0.7907   -1.5100   -1.3153 H         1 <0>         0.0763
     16 C12         0.0554    0.0794   -2.5438 C.3       1 <0>        -0.1242
     17 C13         0.9063   -0.2012   -3.7927 C.3       1 <0>        -0.1013
     18 C14         2.2511    0.4667   -3.5797 C.3       1 <0>        -0.0490
     19 C15         2.9399   -0.2276   -2.3753 C.3       1 <0>        -0.0809
     20 H4          2.9293   -1.3085   -2.5148 H         1 <0>         0.0792
     21 C16         4.3682    0.3218   -2.4586 C.3       1 <0>        -0.1129
     22 C17         4.6631    0.2935   -3.9833 C.3       1 <0>        -0.1493
     23 C18         3.2730    0.3097   -4.7012 C.3       1 <0>         0.1360
     24 C19         3.0187   -0.9871   -5.4723 C.3       1 <0>        -0.1732
     25 O2          3.2149    1.4315   -5.5845 O.3       1 <0>        -0.5561
     26 C20         2.0490    1.9506   -3.2662 C.3       1 <0>        -0.1354
     27 C21         2.8404   -1.9596    0.0104 C.3       1 <0>        -0.1179
     28 C22         3.6321   -2.5424    1.1828 C.3       1 <0>        -0.1152
     29 C23         3.6410   -4.0691    1.0834 C.3       1 <0>        -0.0693
     30 C24         4.4208   -4.6431    2.2381 C.ar      1 <0>        -0.1340
     31 C25         5.7820   -4.8523    2.1156 C.ar      1 <0>        -0.0807
     32 C26         6.4990   -5.3788    3.1726 C.ar      1 <0>        -0.1600
     33 C27         5.8522   -5.6973    4.3578 C.ar      1 <0>         0.1390
     34 C28         4.4863   -5.4861    4.4784 C.ar      1 <0>        -0.2063
     35 C29         3.7748   -4.9545    3.4203 C.ar      1 <0>        -0.0752
     36 O3          6.5552   -6.2158    5.3988 O.3       1 <0>        -0.3241
     37 C30         5.8238   -6.5200    6.5882 C.3       1 <0>         0.0827
     38 C31         6.7765   -7.0898    7.6411 C.3       1 <0>        -0.1821
     39 C32         6.0051   -7.4105    8.8954 C.2       1 <0>         0.4979
     40 O4          4.8047   -7.2027    8.9428 O.co2     1 <0>        -0.6966
     41 O5          6.5815   -7.8779    9.8628 O.co2     1 <0>        -0.6950
     42 H5          0.9263    1.8980   -0.0232 H         1 <0>         0.0672
     43 H6         -0.6023    1.8924   -0.9352 H         1 <0>         0.0659
     44 H7         -0.6277    1.8771    0.8446 H         1 <0>         0.0552
     45 H8         -2.1648    0.2973    0.2845 H         1 <0>         0.0694
     46 H9         -1.7764   -0.5289   -1.2350 H         1 <0>         0.0872
     47 H10        -2.8324   -2.0402    0.4608 H         1 <0>         0.0897
     48 H11        -1.1994   -2.5780   -0.0172 H         1 <0>         0.0978
     49 H12         0.6000   -1.4326    3.0394 H         1 <0>         0.1362
     50 H13         2.1181    1.0732    1.4861 H         1 <0>         0.0800
     51 H14         2.4930   -0.4982    2.2435 H         1 <0>         0.0831
     52 H15        -0.9083   -0.4185   -2.6508 H         1 <0>         0.0660
     53 H16        -0.1083    1.1537   -2.4590 H         1 <0>         0.0732
     54 H17         1.0411   -1.2758   -3.9161 H         1 <0>         0.0647
     55 H18         0.4201    0.2163   -4.6745 H         1 <0>         0.0650
     56 H19         4.4122    1.3416   -2.0761 H         1 <0>         0.0696
     57 H20         5.0618   -0.3236   -1.9196 H         1 <0>         0.0681
     58 H21         5.2599    1.1610   -4.2651 H         1 <0>         0.0717
     59 H22         5.1891   -0.6244   -4.2456 H         1 <0>         0.0653
     60 H23         2.0177   -0.9632   -5.9032 H         1 <0>         0.0659
     61 H24         3.7553   -1.0862   -6.2696 H         1 <0>         0.0551
     62 H25         3.1018   -1.8358   -4.7933 H         1 <0>         0.0671
     63 H26         3.8431    1.3872   -6.3184 H         1 <0>         0.3716
     64 H27         1.3962    2.0532   -2.3994 H         1 <0>         0.0609
     65 H28         3.0133    2.4112   -3.0514 H         1 <0>         0.0535
     66 H29         1.5936    2.4445   -4.1246 H         1 <0>         0.0578
     67 H30         1.8164   -2.3318    0.0427 H         1 <0>         0.0658
     68 H31         3.3067   -2.2598   -0.9279 H         1 <0>         0.0651
     69 H32         4.6560   -2.1701    1.1506 H         1 <0>         0.0617
     70 H33         3.1657   -2.2421    2.1212 H         1 <0>         0.0644
     71 H34         2.6171   -4.4413    1.1156 H         1 <0>         0.0657
     72 H35         4.1074   -4.3694    0.1450 H         1 <0>         0.0653
     73 H36         6.2851   -4.6042    1.1927 H         1 <0>         0.1212
     74 H37         7.5621   -5.5427    3.0761 H         1 <0>         0.1258
     75 H38         3.9805   -5.7333    5.4000 H         1 <0>         0.1331
     76 H39         2.7123   -4.7857    3.5152 H         1 <0>         0.1193
     77 H40         5.3598   -5.6113    6.9718 H         1 <0>         0.0629
     78 H41         5.0512   -7.2547    6.3617 H         1 <0>         0.0629
     79 H42         7.2405   -7.9985    7.2575 H         1 <0>         0.0686
     80 H43         7.5491   -6.3550    7.8676 H         1 <0>         0.0685
@<TRIPOS>BOND
     1    1    2 1
     2    1   42 1
     3    1   43 1
     4    1   44 1
     5    2    8 1
     6    2   14 1
     7    2    3 1
     8    3    4 1
     9    3   45 1
    10    3   46 1
    11    4    5 1
    12    4   47 1
    13    4   48 1
    14    5    6 2
    15    5    7 1
    16    7    8 2
    17    7   49 1
    18    8    9 1
    19    9   10 1
    20    9   50 1
    21    9   51 1
    22   10   11 1
    23   10   12 1
    24   10   27 1
    25   12   13 1
    26   12   19 1
    27   12   14 1
    28   14   15 1
    29   14   16 1
    30   16   17 1
    31   16   52 1
    32   16   53 1
    33   17   18 1
    34   17   54 1
    35   17   55 1
    36   18   23 1
    37   18   19 1
    38   18   26 1
    39   19   20 1
    40   19   21 1
    41   21   22 1
    42   21   56 1
    43   21   57 1
    44   22   23 1
    45   22   58 1
    46   22   59 1
    47   23   24 1
    48   23   25 1
    49   24   60 1
    50   24   61 1
    51   24   62 1
    52   25   63 1
    53   26   64 1
    54   26   65 1
    55   26   66 1
    56   27   28 1
    57   27   67 1
    58   27   68 1
    59   28   29 1
    60   28   69 1
    61   28   70 1
    62   29   30 1
    63   29   71 1
    64   29   72 1
    65   30   35 ar
    66   30   31 ar
    67   31   32 ar
    68   31   73 1
    69   32   33 ar
    70   32   74 1
    71   33   34 ar
    72   33   36 1
    73   34   35 ar
    74   34   75 1
    75   35   76 1
    76   36   37 1
    77   37   38 1
    78   37   77 1
    79   37   78 1
    80   38   39 1
    81   38   79 1
    82   38   80 1
    83   39   40 2
    84   39   41 1
@<TRIPOS>MOLECULE
CHEMBL77789
   59    64     0     0     0
SMALL
USER_CHARGES

@<TRIPOS>ATOM
      1 C1         -0.0187    1.5258    0.0104 C.3       1 <0>        -0.1491
      2 C2          0.0021   -0.0041    0.0020 C.3       1 <0>        -0.0281
      3 C3         -1.4327   -0.4936   -0.0836 C.3       1 <0>        -0.1049
      4 C4         -2.1264   -0.4479    1.2773 C.3       1 <0>        -0.1681
      5 C5         -1.3141   -1.3033    2.2298 C.2       1 <0>         0.3878
      6 O1         -1.8323   -2.1491    2.9285 O.2       1 <0>        -0.4568
      7 C6          0.1314   -1.0550    2.2619 C.2       1 <0>        -0.2412
      8 C7          0.7321   -0.4653    1.2259 C.2       1 <0>        -0.0199
      9 C8          2.2263   -0.2137    1.3153 C.3       1 <0>        -0.0962
     10 C9          2.8828   -0.7071    0.0244 C.3       1 <0>        -0.1132
     11 C10         2.2139   -0.0287   -1.1763 C.3       1 <0>        -0.0734
     12 C11         0.7523   -0.4604   -1.2559 C.3       1 <0>        -0.0671
     13 C12         0.1030    0.2025   -2.4775 C.3       1 <0>        -0.1175
     14 C13         0.7938   -0.3180   -3.7333 C.3       1 <0>        -0.1090
     15 C14         2.2702    0.0844   -3.7509 C.3       1 <0>        -0.0140
     16 C15         2.9773   -0.3398   -2.4347 C.3       1 <0>        -0.0669
     17 C16         3.1530   -1.8523   -2.6827 C.3       1 <0>        -0.0912
     18 C17         3.4316   -1.9057   -4.1766 C.2       1 <0>        -0.1282
     19 C18         2.9479   -0.8248   -4.7752 C.2       1 <0>         0.0569
     20 N1          3.0381   -0.5612   -6.1416 N.pl3     1 <0>        -0.4357
     21 C19         2.0301   -0.6648   -7.0533 C.2       1 <0>         0.2690
     22 N2          2.4637   -0.3426   -8.2370 N.2       1 <0>        -0.4915
     23 C20         3.7787   -0.0099   -8.1681 C.ar      1 <0>         0.0447
     24 C21         4.1654   -0.1400   -6.8232 C.ar      1 <0>         0.0545
     25 C22         5.4706    0.1422   -6.4474 C.ar      1 <0>        -0.1085
     26 C23         6.3839    0.5526   -7.3955 C.ar      1 <0>        -0.1004
     27 C24         6.0065    0.6858   -8.7240 C.ar      1 <0>        -0.1275
     28 C25         4.7177    0.4033   -9.1164 C.ar      1 <0>        -0.0642
     29 C26         2.4562    1.5672   -4.0788 C.3       1 <0>        -0.1337
     30 H1          1.0039    1.9031    0.0027 H         1 <0>         0.0635
     31 H2         -0.5459    1.8868   -0.8726 H         1 <0>         0.0697
     32 H3         -0.5289    1.8773    0.9072 H         1 <0>         0.0584
     33 H4         -1.9819    0.1356   -0.7841 H         1 <0>         0.0840
     34 H5         -1.4369   -1.5199   -0.4508 H         1 <0>         0.0691
     35 H6         -2.1622    0.5791    1.6406 H         1 <0>         0.1000
     36 H7         -3.1371   -0.8468    1.1914 H         1 <0>         0.0926
     37 H8          0.7132   -1.3621    3.1184 H         1 <0>         0.1335
     38 H9          2.4110    0.8539    1.4349 H         1 <0>         0.0850
     39 H10         2.6384   -0.7564    2.1660 H         1 <0>         0.0789
     40 H11         3.9440   -0.4585    0.0380 H         1 <0>         0.0717
     41 H12         2.7628   -1.7875   -0.0548 H         1 <0>         0.0690
     42 H13         2.2370    1.0495   -1.0179 H         1 <0>         0.0785
     43 H14         0.7041   -1.5461   -1.3395 H         1 <0>         0.0770
     44 H15        -0.9569   -0.0498   -2.5111 H         1 <0>         0.0722
     45 H16         0.2234    1.2840   -2.4147 H         1 <0>         0.0742
     46 H17         0.7184   -1.4051   -3.7593 H         1 <0>         0.0671
     47 H18         0.2992    0.0958   -4.6120 H         1 <0>         0.0647
     48 H19         3.9625    0.1236   -2.3828 H         1 <0>         0.0799
     49 H20         3.9987   -2.2424   -2.1164 H         1 <0>         0.0824
     50 H21         2.2390   -2.3939   -2.4391 H         1 <0>         0.0902
     51 H22         3.9444   -2.7116   -4.6805 H         1 <0>         0.1318
     52 H23         1.0193   -0.9704   -6.8265 H         1 <0>         0.2107
     53 H24         5.7706    0.0412   -5.4148 H         1 <0>         0.1196
     54 H25         7.3998    0.7721   -7.1020 H         1 <0>         0.1303
     55 H26         6.7311    1.0084   -9.4570 H         1 <0>         0.1309
     56 H27         4.4309    0.5103  -10.1521 H         1 <0>         0.1305
     57 H28         1.9581    2.1721   -3.3212 H         1 <0>         0.0653
     58 H29         3.5197    1.8056   -4.0927 H         1 <0>         0.0567
     59 H30         2.0233    1.7802   -5.0563 H         1 <0>         0.0561
@<TRIPOS>BOND
     1    1    2 1
     2    1   30 1
     3    1   31 1
     4    1   32 1
     5    2    8 1
     6    2   12 1
     7    2    3 1
     8    3    4 1
     9    3   33 1
    10    3   34 1
    11    4    5 1
    12    4   35 1
    13    4   36 1
    14    5    6 2
    15    5    7 1
    16    7    8 2
    17    7   37 1
    18    8    9 1
    19    9   10 1
    20    9   38 1
    21    9   39 1
    22   10   11 1
    23   10   40 1
    24   10   41 1
    25   11   16 1
    26   11   12 1
    27   11   42 1
    28   12   13 1
    29   12   43 1
    30   13   14 1
    31   13   44 1
    32   13   45 1
    33   14   15 1
    34   14   46 1
    35   14   47 1
    36   15   19 1
    37   15   16 1
    38   15   29 1
    39   16   17 1
    40   16   48 1
    41   17   18 1
    42   17   49 1
    43   17   50 1
    44   18   19 2
    45   18   51 1
    46   19   20 1
    47   20   24 1
    48   20   21 1
    49   21   22 2
    50   21   52 1
    51   22   23 1
    52   23   28 ar
    53   23   24 ar
    54   24   25 ar
    55   25   26 ar
    56   25   53 1
    57   26   27 ar
    58   26   54 1
    59   27   28 ar
    60   27   55 1
    61   28   56 1
    62   29   57 1
    63   29   58 1
    64   29   59 1
@<TRIPOS>MOLECULE
CHEMBL77789__1
   60    65     0     0     0
SMALL
USER_CHARGES

@<TRIPOS>ATOM
      1 C1         -0.0187    1.5258    0.0104 C.3       1 <0>        -0.1504
      2 C2          0.0021   -0.0041    0.0020 C.3       1 <0>        -0.0258
      3 C3         -1.4327   -0.4936   -0.0836 C.3       1 <0>        -0.1043
      4 C4         -2.1264   -0.4479    1.2773 C.3       1 <0>        -0.1693
      5 C5         -1.3141   -1.3033    2.2298 C.2       1 <0>         0.3847
      6 O1         -1.8323   -2.1491    2.9285 O.2       1 <0>        -0.4500
      7 C6          0.1314   -1.0550    2.2619 C.2       1 <0>        -0.2312
      8 C7          0.7321   -0.4653    1.2259 C.2       1 <0>        -0.0305
      9 C8          2.2263   -0.2137    1.3153 C.3       1 <0>        -0.0963
     10 C9          2.8828   -0.7071    0.0244 C.3       1 <0>        -0.1132
     11 C10         2.2139   -0.0287   -1.1763 C.3       1 <0>        -0.0768
     12 C11         0.7523   -0.4604   -1.2559 C.3       1 <0>        -0.0679
     13 C12         0.1030    0.2025   -2.4775 C.3       1 <0>        -0.1203
     14 C13         0.7938   -0.3180   -3.7333 C.3       1 <0>        -0.1127
     15 C14         2.2702    0.0844   -3.7509 C.3       1 <0>        -0.0061
     16 C15         2.9773   -0.3398   -2.4347 C.3       1 <0>        -0.0645
     17 C16         3.1530   -1.8523   -2.6827 C.3       1 <0>        -0.1033
     18 C17         3.4316   -1.9057   -4.1766 C.2       1 <0>        -0.0606
     19 C18         2.9479   -0.8248   -4.7752 C.2       1 <0>        -0.0080
     20 N1          3.0381   -0.5612   -6.1416 N.pl3     1 <0>        -0.3604
     21 C19         2.0301   -0.6648   -7.0533 C.cat     1 <0>         0.3728
     22 N2          2.4637   -0.3426   -8.2370 N.pl3     1 <0>        -0.4882
     23 C20         3.7787   -0.0099   -8.1681 C.ar      1 <0>         0.0434
     24 C21         4.1654   -0.1400   -6.8232 C.ar      1 <0>         0.0796
     25 C22         5.4706    0.1422   -6.4474 C.ar      1 <0>        -0.0844
     26 C23         6.3839    0.5526   -7.3955 C.ar      1 <0>        -0.0659
     27 C24         6.0065    0.6858   -8.7240 C.ar      1 <0>        -0.0774
     28 C25         4.7177    0.4033   -9.1164 C.ar      1 <0>        -0.0766
     29 C26         2.4562    1.5672   -4.0788 C.3       1 <0>        -0.1404
     30 H1          1.0039    1.9031    0.0027 H         1 <0>         0.0632
     31 H2         -0.5459    1.8868   -0.8726 H         1 <0>         0.0683
     32 H3         -0.5289    1.8773    0.9072 H         1 <0>         0.0617
     33 H4         -1.9819    0.1356   -0.7841 H         1 <0>         0.0830
     34 H5         -1.4369   -1.5199   -0.4508 H         1 <0>         0.0686
     35 H6         -2.1622    0.5791    1.6406 H         1 <0>         0.1013
     36 H7         -3.1371   -0.8468    1.1914 H         1 <0>         0.0945
     37 H8          0.7132   -1.3621    3.1184 H         1 <0>         0.1354
     38 H9          2.4110    0.8539    1.4349 H         1 <0>         0.0858
     39 H10         2.6384   -0.7564    2.1660 H         1 <0>         0.0817
     40 H11         3.9440   -0.4585    0.0380 H         1 <0>         0.0729
     41 H12         2.7628   -1.7875   -0.0548 H         1 <0>         0.0696
     42 H13         2.2370    1.0495   -1.0179 H         1 <0>         0.0830
     43 H14         0.7041   -1.5461   -1.3395 H         1 <0>         0.0781
     44 H15        -0.9569   -0.0498   -2.5111 H         1 <0>         0.0777
     45 H16         0.2234    1.2840   -2.4147 H         1 <0>         0.0774
     46 H17         0.7184   -1.4051   -3.7593 H         1 <0>         0.0708
     47 H18         0.2992    0.0958   -4.6120 H         1 <0>         0.0623
     48 H19         3.9625    0.1236   -2.3828 H         1 <0>         0.0864
     49 H20         3.9987   -2.2424   -2.1164 H         1 <0>         0.0980
     50 H21         2.2390   -2.3939   -2.4391 H         1 <0>         0.1056
     51 H22         3.9444   -2.7116   -4.6805 H         1 <0>         0.1434
     52 H23         1.0193   -0.9704   -6.8265 H         1 <0>         0.2627
     53 H24         5.7706    0.0412   -5.4148 H         1 <0>         0.1490
     54 H25         7.3998    0.7721   -7.1020 H         1 <0>         0.1570
     55 H26         6.7311    1.0084   -9.4570 H         1 <0>         0.1576
     56 H27         4.4309    0.5103  -10.1521 H         1 <0>         0.1539
     57 H28         1.9581    2.1721   -3.3212 H         1 <0>         0.0774
     58 H29         3.5197    1.8056   -4.0927 H         1 <0>         0.0620
     59 H30         2.0233    1.7802   -5.0563 H         1 <0>         0.0512
     60 H31         1.9288   -0.3405   -9.0462 H         1 <0>         0.4642
@<TRIPOS>BOND
     1    1    2 1
     2    1   30 1
     3    1   31 1
     4    1   32 1
     5    2    8 1
     6    2   12 1
     7    2    3 1
     8    3    4 1
     9    3   33 1
    10    3   34 1
    11    4    5 1
    12    4   35 1
    13    4   36 1
    14    5    6 2
    15    5    7 1
    16    7    8 2
    17    7   37 1
    18    8    9 1
    19    9   10 1
    20    9   38 1
    21    9   39 1
    22   10   11 1
    23   10   40 1
    24   10   41 1
    25   11   16 1
    26   11   12 1
    27   11   42 1
    28   12   13 1
    29   12   43 1
    30   13   14 1
    31   13   44 1
    32   13   45 1
    33   14   15 1
    34   14   46 1
    35   14   47 1
    36   15   19 1
    37   15   16 1
    38   15   29 1
    39   16   17 1
    40   16   48 1
    41   17   18 1
    42   17   49 1
    43   17   50 1
    44   18   19 2
    45   18   51 1
    46   19   20 1
    47   20   24 1
    48   20   21 1
    49   21   22 2
    50   21   52 1
    51   22   23 1
    52   22   60 1
    53   23   28 ar
    54   23   24 ar
    55   24   25 ar
    56   25   26 ar
    57   25   53 1
    58   26   27 ar
    59   26   54 1
    60   27   28 ar
    61   27   55 1
    62   28   56 1
    63   29   57 1
    64   29   58 1
    65   29   59 1
@<TRIPOS>MOLECULE
CHEMBL77789__2
   59    64     0     0     0
SMALL
USER_CHARGES

@<TRIPOS>ATOM
      1 C1          0.0010    1.5239    0.0229 C.3       1 <0>        -0.1505
      2 C2          0.0244   -0.0059    0.0152 C.3       1 <0>        -0.0279
      3 C3         -1.4100   -0.4974   -0.0621 C.3       1 <0>        -0.1058
      4 C4         -2.0963   -0.4517    1.3026 C.3       1 <0>        -0.1682
      5 C5         -1.2773   -1.3054    2.2508 C.2       1 <0>         0.3877
      6 O1         -1.7903   -2.1517    2.9527 O.2       1 <0>        -0.4567
      7 C6          0.1681   -1.0550    2.2749 C.2       1 <0>        -0.2410
      8 C7          0.7626   -0.4646    1.2352 C.2       1 <0>        -0.0195
      9 C8          2.2566   -0.2097    1.3193 C.3       1 <0>        -0.0965
     10 C9          2.9104   -0.6837    0.0196 C.3       1 <0>        -0.1137
     11 C10         2.2311    0.0045   -1.1682 C.3       1 <0>        -0.0785
     12 C11         0.7687   -0.4609   -1.2462 C.3       1 <0>        -0.0666
     13 C12         0.0426    0.0733   -2.4764 C.3       1 <0>        -0.1215
     14 C13         0.8153   -0.2205   -3.7741 C.3       1 <0>        -0.1023
     15 C14         2.1907    0.3821   -3.6091 C.3       1 <0>        -0.0337
     16 C15         2.9060   -0.4181   -2.4594 C.3       1 <0>        -0.0776
     17 C16         4.3364    0.0928   -2.6852 C.3       1 <0>        -0.0856
     18 C17         4.4106    0.1435   -4.2114 C.2       1 <0>        -0.1247
     19 C18         3.1656    0.2943   -4.7345 C.2       1 <0>         0.0639
     20 N1          2.8468    0.3416   -6.0913 N.pl3     1 <0>        -0.4337
     21 C19         2.2733   -0.6557   -6.8224 C.2       1 <0>         0.2721
     22 N2          2.1165   -0.2718   -8.0556 N.2       1 <0>        -0.4916
     23 C20         2.5776    0.9972   -8.2024 C.ar      1 <0>         0.0450
     24 C21         3.0479    1.4114   -6.9444 C.ar      1 <0>         0.0526
     25 C22         3.5792    2.6833   -6.7880 C.ar      1 <0>        -0.1083
     26 C23         3.6413    3.5383   -7.8681 C.ar      1 <0>        -0.1006
     27 C24         3.1754    3.1356   -9.1114 C.ar      1 <0>        -0.1274
     28 C25         2.6515    1.8748   -9.2869 C.ar      1 <0>        -0.0643
     29 C26         2.0517    1.8432   -3.1766 C.3       1 <0>        -0.1519
     30 H1          1.0228    1.9030    0.0089 H         1 <0>         0.0639
     31 H2         -0.5321    1.8836   -0.8572 H         1 <0>         0.0689
     32 H3         -0.5045    1.8751    0.9225 H         1 <0>         0.0599
     33 H4         -1.9640    0.1304   -0.7600 H         1 <0>         0.0836
     34 H5         -1.4149   -1.5241   -0.4284 H         1 <0>         0.0694
     35 H6         -2.1314    0.5756    1.6654 H         1 <0>         0.1000
     36 H7         -3.1070   -0.8520    1.2227 H         1 <0>         0.0927
     37 H8          0.7548   -1.3610    3.1284 H         1 <0>         0.1338
     38 H9          2.4384    0.8568    1.4520 H         1 <0>         0.0848
     39 H10         2.6747   -0.7614    2.1612 H         1 <0>         0.0786
     40 H11         3.9700   -0.4283    0.0309 H         1 <0>         0.0730
     41 H12         2.7968   -1.7639   -0.0720 H         1 <0>         0.0674
     42 H13         2.2856    1.0872   -1.0544 H         1 <0>         0.0922
     43 H14         0.7580   -1.5500   -1.2882 H         1 <0>         0.0722
     44 H15        -0.9415   -0.3914   -2.5368 H         1 <0>         0.0687
     45 H16        -0.0818    1.1514   -2.3742 H         1 <0>         0.0755
     46 H17         0.8959   -1.2971   -3.9241 H         1 <0>         0.0674
     47 H18         0.3070    0.2379   -4.6223 H         1 <0>         0.0650
     48 H19         2.8250   -1.4940   -2.6144 H         1 <0>         0.0891
     49 H20         4.4688    1.0855   -2.2549 H         1 <0>         0.0904
     50 H21         5.0689   -0.6065   -2.2819 H         1 <0>         0.0825
     51 H22         5.3190    0.0712   -4.7909 H         1 <0>         0.1335
     52 H23         1.9909   -1.6234   -6.4347 H         1 <0>         0.2113
     53 H24         3.9430    3.0032   -5.8227 H         1 <0>         0.1196
     54 H25         4.0551    4.5283   -7.7454 H         1 <0>         0.1303
     55 H26         3.2292    3.8147   -9.9494 H         1 <0>         0.1309
     56 H27         2.2899    1.5686  -10.2574 H         1 <0>         0.1306
     57 H28         1.4341    1.8996   -2.2803 H         1 <0>         0.0795
     58 H29         3.0385    2.2546   -2.9644 H         1 <0>         0.0579
     59 H30         1.5837    2.4161   -3.9771 H         1 <0>         0.0541
@<TRIPOS>BOND
     1    1    2 1
     2    1   30 1
     3    1   31 1
     4    1   32 1
     5    2    8 1
     6    2   12 1
     7    2    3 1
     8    3    4 1
     9    3   33 1
    10    3   34 1
    11    4    5 1
    12    4   35 1
    13    4   36 1
    14    5    6 2
    15    5    7 1
    16    7    8 2
    17    7   37 1
    18    8    9 1
    19    9   10 1
    20    9   38 1
    21    9   39 1
    22   10   11 1
    23   10   40 1
    24   10   41 1
    25   11   16 1
    26   11   12 1
    27   11   42 1
    28   12   13 1
    29   12   43 1
    30   13   14 1
    31   13   44 1
    32   13   45 1
    33   14   15 1
    34   14   46 1
    35   14   47 1
    36   15   19 1
    37   15   16 1
    38   15   29 1
    39   16   17 1
    40   16   48 1
    41   17   18 1
    42   17   49 1
    43   17   50 1
    44   18   19 2
    45   18   51 1
    46   19   20 1
    47   20   24 1
    48   20   21 1
    49   21   22 2
    50   21   52 1
    51   22   23 1
    52   23   28 ar
    53   23   24 ar
    54   24   25 ar
    55   25   26 ar
    56   25   53 1
    57   26   27 ar
    58   26   54 1
    59   27   28 ar
    60   27   55 1
    61   28   56 1
    62   29   57 1
    63   29   58 1
    64   29   59 1
@<TRIPOS>MOLECULE
CHEMBL77789__3
   60    65     0     0     0
SMALL
USER_CHARGES

@<TRIPOS>ATOM
      1 C1          0.0010    1.5239    0.0229 C.3       1 <0>        -0.1517
      2 C2          0.0244   -0.0059    0.0152 C.3       1 <0>        -0.0255
      3 C3         -1.4100   -0.4974   -0.0621 C.3       1 <0>        -0.1053
      4 C4         -2.0963   -0.4517    1.3026 C.3       1 <0>        -0.1692
      5 C5         -1.2773   -1.3054    2.2508 C.2       1 <0>         0.3845
      6 O1         -1.7903   -2.1517    2.9527 O.2       1 <0>        -0.4496
      7 C6          0.1681   -1.0550    2.2749 C.2       1 <0>        -0.2306
      8 C7          0.7626   -0.4646    1.2352 C.2       1 <0>        -0.0304
      9 C8          2.2566   -0.2097    1.3193 C.3       1 <0>        -0.0965
     10 C9          2.9104   -0.6837    0.0196 C.3       1 <0>        -0.1139
     11 C10         2.2311    0.0045   -1.1682 C.3       1 <0>        -0.0807
     12 C11         0.7687   -0.4609   -1.2462 C.3       1 <0>        -0.0679
     13 C12         0.0426    0.0733   -2.4764 C.3       1 <0>        -0.1238
     14 C13         0.8153   -0.2205   -3.7741 C.3       1 <0>        -0.1059
     15 C14         2.1907    0.3821   -3.6091 C.3       1 <0>        -0.0319
     16 C15         2.9060   -0.4181   -2.4594 C.3       1 <0>        -0.0736
     17 C16         4.3364    0.0928   -2.6852 C.3       1 <0>        -0.0982
     18 C17         4.4106    0.1435   -4.2114 C.2       1 <0>        -0.0524
     19 C18         3.1656    0.2943   -4.7345 C.2       1 <0>        -0.0021
     20 N1          2.8468    0.3416   -6.0913 N.pl3     1 <0>        -0.3581
     21 C19         2.2733   -0.6557   -6.8224 C.cat     1 <0>         0.3759
     22 N2          2.1165   -0.2718   -8.0556 N.pl3     1 <0>        -0.4884
     23 C20         2.5776    0.9972   -8.2024 C.ar      1 <0>         0.0432
     24 C21         3.0479    1.4114   -6.9444 C.ar      1 <0>         0.0781
     25 C22         3.5792    2.6833   -6.7880 C.ar      1 <0>        -0.0845
     26 C23         3.6413    3.5383   -7.8681 C.ar      1 <0>        -0.0661
     27 C24         3.1754    3.1356   -9.1114 C.ar      1 <0>        -0.0776
     28 C25         2.6515    1.8748   -9.2869 C.ar      1 <0>        -0.0765
     29 C26         2.0517    1.8432   -3.1766 C.3       1 <0>        -0.1582
     30 H1          1.0228    1.9030    0.0089 H         1 <0>         0.0634
     31 H2         -0.5321    1.8836   -0.8572 H         1 <0>         0.0672
     32 H3         -0.5045    1.8751    0.9225 H         1 <0>         0.0634
     33 H4         -1.9640    0.1304   -0.7600 H         1 <0>         0.0825
     34 H5         -1.4149   -1.5241   -0.4284 H         1 <0>         0.0690
     35 H6         -2.1314    0.5756    1.6654 H         1 <0>         0.1012
     36 H7         -3.1070   -0.8520    1.2227 H         1 <0>         0.0945
     37 H8          0.7548   -1.3610    3.1284 H         1 <0>         0.1358
     38 H9          2.4384    0.8568    1.4520 H         1 <0>         0.0854
     39 H10         2.6747   -0.7614    2.1612 H         1 <0>         0.0814
     40 H11         3.9700   -0.4283    0.0309 H         1 <0>         0.0738
     41 H12         2.7968   -1.7639   -0.0720 H         1 <0>         0.0691
     42 H13         2.2856    1.0872   -1.0544 H         1 <0>         0.0948
     43 H14         0.7580   -1.5500   -1.2882 H         1 <0>         0.0745
     44 H15        -0.9415   -0.3914   -2.5368 H         1 <0>         0.0740
     45 H16        -0.0818    1.1514   -2.3742 H         1 <0>         0.0790
     46 H17         0.8959   -1.2971   -3.9241 H         1 <0>         0.0706
     47 H18         0.3070    0.2379   -4.6223 H         1 <0>         0.0611
     48 H19         2.8250   -1.4940   -2.6144 H         1 <0>         0.0952
     49 H20         4.4688    1.0855   -2.2549 H         1 <0>         0.1062
     50 H21         5.0689   -0.6065   -2.2819 H         1 <0>         0.0978
     51 H22         5.3190    0.0712   -4.7909 H         1 <0>         0.1456
     52 H23         1.9909   -1.6234   -6.4347 H         1 <0>         0.2635
     53 H24         3.9430    3.0032   -5.8227 H         1 <0>         0.1488
     54 H25         4.0551    4.5283   -7.7454 H         1 <0>         0.1569
     55 H26         3.2292    3.8147   -9.9494 H         1 <0>         0.1576
     56 H27         2.2899    1.5686  -10.2574 H         1 <0>         0.1540
     57 H28         1.4341    1.8996   -2.2803 H         1 <0>         0.0885
     58 H29         3.0385    2.2546   -2.9644 H         1 <0>         0.0626
     59 H30         1.5837    2.4161   -3.9771 H         1 <0>         0.0550
     60 H31         1.7291   -0.8105   -8.7631 H         1 <0>         0.4643
@<TRIPOS>BOND
     1    1    2 1
     2    1   30 1
     3    1   31 1
     4    1   32 1
     5    2    8 1
     6    2   12 1
     7    2    3 1
     8    3    4 1
     9    3   33 1
    10    3   34 1
    11    4    5 1
    12    4   35 1
    13    4   36 1
    14    5    6 2
    15    5    7 1
    16    7    8 2
    17    7   37 1
    18    8    9 1
    19    9   10 1
    20    9   38 1
    21    9   39 1
    22   10   11 1
    23   10   40 1
    24   10   41 1
    25   11   16 1
    26   11   12 1
    27   11   42 1
    28   12   13 1
    29   12   43 1
    30   13   14 1
    31   13   44 1
    32   13   45 1
    33   14   15 1
    34   14   46 1
    35   14   47 1
    36   15   19 1
    37   15   16 1
    38   15   29 1
    39   16   17 1
    40   16   48 1
    41   17   18 1
    42   17   49 1
    43   17   50 1
    44   18   19 2
    45   18   51 1
    46   19   20 1
    47   20   24 1
    48   20   21 1
    49   21   22 2
    50   21   52 1
    51   22   23 1
    52   22   60 1
    53   23   28 ar
    54   23   24 ar
    55   24   25 ar
    56   25   26 ar
    57   25   53 1
    58   26   27 ar
    59   26   54 1
    60   27   28 ar
    61   27   55 1
    62   28   56 1
    63   29   57 1
    64   29   58 1
    65   29   59 1
@<TRIPOS>MOLECULE
CHEMBL77789__4
   59    64     0     0     0
SMALL
USER_CHARGES

@<TRIPOS>ATOM
      1 C1         -0.0187    1.5258    0.0104 C.3       1 <0>        -0.1465
      2 C2          0.0021   -0.0041    0.0020 C.3       1 <0>        -0.0297
      3 C3         -1.4297   -0.5001   -0.0912 C.3       1 <0>        -0.1088
      4 C4         -2.1288   -0.4637    1.2673 C.3       1 <0>        -0.1678
      5 C5         -1.3166   -1.3209    2.2180 C.2       1 <0>         0.3878
      6 O1         -1.8352   -2.1694    2.9132 O.2       1 <0>        -0.4569
      7 C6          0.1283   -1.0719    2.2539 C.2       1 <0>        -0.2443
      8 C7          0.7318   -0.4721    1.2252 C.2       1 <0>        -0.0152
      9 C8          2.2256   -0.2228    1.3262 C.3       1 <0>        -0.0966
     10 C9          2.8959   -0.6782    0.0264 C.3       1 <0>        -0.1402
     11 C10         2.2109    0.0158   -1.1523 C.3       1 <0>        -0.0759
     12 C11         0.7641   -0.4681   -1.2499 C.3       1 <0>        -0.0679
     13 C12         0.7466   -1.9957   -1.2949 C.3       1 <0>        -0.1156
     14 C13         2.0290   -2.5282   -1.9210 C.3       1 <0>        -0.1168
     15 C14         2.5108   -1.6112   -3.0431 C.3       1 <0>        -0.0169
     16 C15         2.9557   -0.2682   -2.4459 C.3       1 <0>        -0.0707
     17 C16         4.4484   -0.5362   -2.1566 C.3       1 <0>        -0.1102
     18 C17         4.8369   -1.6120   -3.1460 C.2       1 <0>        -0.1262
     19 C18         3.7776   -2.1921   -3.6372 C.2       1 <0>         0.0651
     20 N1          3.8119   -3.2271   -4.5710 N.pl3     1 <0>        -0.4375
     21 C19         3.5864   -4.5482   -4.3224 C.2       1 <0>         0.2685
     22 N2          3.6981   -5.2349   -5.4219 N.2       1 <0>        -0.4916
     23 C20         4.0028   -4.4038   -6.4520 C.ar      1 <0>         0.0447
     24 C21         4.0752   -3.1037   -5.9232 C.ar      1 <0>         0.0549
     25 C22         4.3692   -2.0330   -6.7549 C.ar      1 <0>        -0.1084
     26 C23         4.5867   -2.2484   -8.0994 C.ar      1 <0>        -0.1006
     27 C24         4.5131   -3.5295   -8.6272 C.ar      1 <0>        -0.1276
     28 C25         4.2296   -4.6047   -7.8159 C.ar      1 <0>        -0.0643
     29 C26         1.4301   -1.4381   -4.1123 C.3       1 <0>        -0.1384
     30 H1          1.0039    1.9031    0.0027 H         1 <0>         0.0651
     31 H2         -0.5459    1.8868   -0.8726 H         1 <0>         0.0651
     32 H3         -0.5289    1.8773    0.9072 H         1 <0>         0.0595
     33 H4         -1.9794    0.1294   -0.7911 H         1 <0>         0.0817
     34 H5         -1.4276   -1.5248   -0.4628 H         1 <0>         0.0731
     35 H6         -2.1697    0.5614    1.6355 H         1 <0>         0.0995
     36 H7         -3.1378   -0.8659    1.1757 H         1 <0>         0.0923
     37 H8          0.7081   -1.3849    3.1096 H         1 <0>         0.1330
     38 H9          2.4084    0.8410    1.4777 H         1 <0>         0.0843
     39 H10         2.6338   -0.7875    2.1644 H         1 <0>         0.0778
     40 H11         3.9517   -0.4080    0.0459 H         1 <0>         0.0823
     41 H12         2.7953   -1.7585   -0.0773 H         1 <0>         0.0891
     42 H13         2.2046    1.0914   -0.9755 H         1 <0>         0.0814
     43 H14         0.2900   -0.0576   -2.1414 H         1 <0>         0.0856
     44 H15         0.6537   -2.3841   -0.2807 H         1 <0>         0.0689
     45 H16        -0.1068   -2.3281   -1.8860 H         1 <0>         0.0645
     46 H17         2.8015   -2.5929   -1.1548 H         1 <0>         0.0813
     47 H18         1.8435   -3.5229   -2.3262 H         1 <0>         0.0600
     48 H19         2.8214    0.5434   -3.1610 H         1 <0>         0.0882
     49 H20         5.0367    0.3660   -2.3247 H         1 <0>         0.0820
     50 H21         4.5802   -0.8928   -1.1351 H         1 <0>         0.1080
     51 H22         5.8535   -1.8601   -3.4135 H         1 <0>         0.1315
     52 H23         3.3502   -4.9643   -3.3542 H         1 <0>         0.2103
     53 H24         4.4272   -1.0333   -6.3504 H         1 <0>         0.1197
     54 H25         4.8155   -1.4143   -8.7461 H         1 <0>         0.1302
     55 H26         4.6851   -3.6850   -9.6820 H         1 <0>         0.1308
     56 H27         4.1730   -5.5989   -8.2339 H         1 <0>         0.1303
     57 H28         0.5441   -0.9887   -3.6639 H         1 <0>         0.0685
     58 H29         1.8041   -0.7906   -4.9054 H         1 <0>         0.0552
     59 H30         1.1723   -2.4116   -4.5293 H         1 <0>         0.0540
@<TRIPOS>BOND
     1    1    2 1
     2    1   30 1
     3    1   31 1
     4    1   32 1
     5    2    8 1
     6    2   12 1
     7    2    3 1
     8    3    4 1
     9    3   33 1
    10    3   34 1
    11    4    5 1
    12    4   35 1
    13    4   36 1
    14    5    6 2
    15    5    7 1
    16    7    8 2
    17    7   37 1
    18    8    9 1
    19    9   10 1
    20    9   38 1
    21    9   39 1
    22   10   11 1
    23   10   40 1
    24   10   41 1
    25   11   16 1
    26   11   12 1
    27   11   42 1
    28   12   13 1
    29   12   43 1
    30   13   14 1
    31   13   44 1
    32   13   45 1
    33   14   15 1
    34   14   46 1
    35   14   47 1
    36   15   19 1
    37   15   16 1
    38   15   29 1
    39   16   17 1
    40   16   48 1
    41   17   18 1
    42   17   49 1
    43   17   50 1
    44   18   19 2
    45   18   51 1
    46   19   20 1
    47   20   24 1
    48   20   21 1
    49   21   22 2
    50   21   52 1
    51   22   23 1
    52   23   28 ar
    53   23   24 ar
    54   24   25 ar
    55   25   26 ar
    56   25   53 1
    57   26   27 ar
    58   26   54 1
    59   27   28 ar
    60   27   55 1
    61   28   56 1
    62   29   57 1
    63   29   58 1
    64   29   59 1
@<TRIPOS>MOLECULE
CHEMBL77789__5
   60    65     0     0     0
SMALL
USER_CHARGES

@<TRIPOS>ATOM
      1 C1         -0.0187    1.5258    0.0104 C.3       1 <0>        -0.1486
      2 C2          0.0021   -0.0041    0.0020 C.3       1 <0>        -0.0280
      3 C3         -1.4297   -0.5001   -0.0912 C.3       1 <0>        -0.1078
      4 C4         -2.1288   -0.4637    1.2673 C.3       1 <0>        -0.1694
      5 C5         -1.3166   -1.3209    2.2180 C.2       1 <0>         0.3851
      6 O1         -1.8352   -2.1694    2.9132 O.2       1 <0>        -0.4513
      7 C6          0.1283   -1.0719    2.2539 C.2       1 <0>        -0.2354
      8 C7          0.7318   -0.4721    1.2252 C.2       1 <0>        -0.0250
      9 C8          2.2256   -0.2228    1.3262 C.3       1 <0>        -0.0969
     10 C9          2.8959   -0.6782    0.0264 C.3       1 <0>        -0.1384
     11 C10         2.2109    0.0158   -1.1523 C.3       1 <0>        -0.0807
     12 C11         0.7641   -0.4681   -1.2499 C.3       1 <0>        -0.0682
     13 C12         0.7466   -1.9957   -1.2949 C.3       1 <0>        -0.1184
     14 C13         2.0290   -2.5282   -1.9210 C.3       1 <0>        -0.1194
     15 C14         2.5108   -1.6112   -3.0431 C.3       1 <0>        -0.0106
     16 C15         2.9557   -0.2682   -2.4459 C.3       1 <0>        -0.0680
     17 C16         4.4484   -0.5362   -2.1566 C.3       1 <0>        -0.1224
     18 C17         4.8369   -1.6120   -3.1460 C.2       1 <0>        -0.0618
     19 C18         3.7776   -2.1921   -3.6372 C.2       1 <0>         0.0038
     20 N1          3.8119   -3.2271   -4.5710 N.pl3     1 <0>        -0.3626
     21 C19         3.5864   -4.5482   -4.3224 C.cat     1 <0>         0.3722
     22 N2          3.6981   -5.2349   -5.4219 N.pl3     1 <0>        -0.4880
     23 C20         4.0028   -4.4038   -6.4520 C.ar      1 <0>         0.0433
     24 C21         4.0752   -3.1037   -5.9232 C.ar      1 <0>         0.0802
     25 C22         4.3692   -2.0330   -6.7549 C.ar      1 <0>        -0.0842
     26 C23         4.5867   -2.2484   -8.0994 C.ar      1 <0>        -0.0659
     27 C24         4.5131   -3.5295   -8.6272 C.ar      1 <0>        -0.0775
     28 C25         4.2296   -4.6047   -7.8159 C.ar      1 <0>        -0.0766
     29 C26         1.4301   -1.4381   -4.1123 C.3       1 <0>        -0.1453
     30 H1          1.0039    1.9031    0.0027 H         1 <0>         0.0650
     31 H2         -0.5459    1.8868   -0.8726 H         1 <0>         0.0660
     32 H3         -0.5289    1.8773    0.9072 H         1 <0>         0.0627
     33 H4         -1.9794    0.1294   -0.7911 H         1 <0>         0.0827
     34 H5         -1.4276   -1.5248   -0.4628 H         1 <0>         0.0709
     35 H6         -2.1697    0.5614    1.6355 H         1 <0>         0.1017
     36 H7         -3.1378   -0.8659    1.1757 H         1 <0>         0.0944
     37 H8          0.7081   -1.3849    3.1096 H         1 <0>         0.1345
     38 H9          2.4084    0.8410    1.4777 H         1 <0>         0.0867
     39 H10         2.6338   -0.7875    2.1644 H         1 <0>         0.0801
     40 H11         3.9517   -0.4080    0.0459 H         1 <0>         0.0820
     41 H12         2.7953   -1.7585   -0.0773 H         1 <0>         0.0862
     42 H13         2.2046    1.0914   -0.9755 H         1 <0>         0.0886
     43 H14         0.2900   -0.0576   -2.1414 H         1 <0>         0.0868
     44 H15         0.6537   -2.3841   -0.2807 H         1 <0>         0.0750
     45 H16        -0.1068   -2.3281   -1.8860 H         1 <0>         0.0670
     46 H17         2.8015   -2.5929   -1.1548 H         1 <0>         0.0873
     47 H18         1.8435   -3.5229   -2.3262 H         1 <0>         0.0537
     48 H19         2.8214    0.5434   -3.1610 H         1 <0>         0.0959
     49 H20         5.0367    0.3660   -2.3247 H         1 <0>         0.0981
     50 H21         4.5802   -0.8928   -1.1351 H         1 <0>         0.1229
     51 H22         5.8535   -1.8601   -3.4135 H         1 <0>         0.1429
     52 H23         3.3502   -4.9643   -3.3542 H         1 <0>         0.2623
     53 H24         4.4272   -1.0333   -6.3504 H         1 <0>         0.1493
     54 H25         4.8155   -1.4143   -8.7461 H         1 <0>         0.1570
     55 H26         4.6851   -3.6850   -9.6820 H         1 <0>         0.1576
     56 H27         4.1730   -5.5989   -8.2339 H         1 <0>         0.1539
     57 H28         0.5441   -0.9887   -3.6639 H         1 <0>         0.0803
     58 H29         1.8041   -0.7906   -4.9054 H         1 <0>         0.0607
     59 H30         1.1723   -2.4116   -4.5293 H         1 <0>         0.0494
     60 H31         3.5818   -6.1951   -5.4948 H         1 <0>         0.4641
@<TRIPOS>BOND
     1    1    2 1
     2    1   30 1
     3    1   31 1
     4    1   32 1
     5    2    8 1
     6    2   12 1
     7    2    3 1
     8    3    4 1
     9    3   33 1
    10    3   34 1
    11    4    5 1
    12    4   35 1
    13    4   36 1
    14    5    6 2
    15    5    7 1
    16    7    8 2
    17    7   37 1
    18    8    9 1
    19    9   10 1
    20    9   38 1
    21    9   39 1
    22   10   11 1
    23   10   40 1
    24   10   41 1
    25   11   16 1
    26   11   12 1
    27   11   42 1
    28   12   13 1
    29   12   43 1
    30   13   14 1
    31   13   44 1
    32   13   45 1
    33   14   15 1
    34   14   46 1
    35   14   47 1
    36   15   19 1
    37   15   16 1
    38   15   29 1
    39   16   17 1
    40   16   48 1
    41   17   18 1
    42   17   49 1
    43   17   50 1
    44   18   19 2
    45   18   51 1
    46   19   20 1
    47   20   24 1
    48   20   21 1
    49   21   22 2
    50   21   52 1
    51   22   23 1
    52   22   60 1
    53   23   28 ar
    54   23   24 ar
    55   24   25 ar
    56   25   26 ar
    57   25   53 1
    58   26   27 ar
    59   26   54 1
    60   27   28 ar
    61   27   55 1
    62   28   56 1
    63   29   57 1
    64   29   58 1
    65   29   59 1
@<TRIPOS>MOLECULE
CHEMBL77789__6
   59    64     0     0     0
SMALL
USER_CHARGES

@<TRIPOS>ATOM
      1 C1         -0.9283    0.9698   -0.2707 C.3       1 <0>        -0.1526
      2 C2         -0.7468   -0.5517   -0.4052 C.3       1 <0>        -0.0294
      3 C3         -2.1200   -1.0668   -0.7693 C.3       1 <0>        -0.1038
      4 C4         -2.3892   -2.4734   -0.2482 C.3       1 <0>        -0.1692
      5 C5         -2.1017   -2.5116    1.2390 C.2       1 <0>         0.3882
      6 O1         -2.8743   -3.0349    2.0196 O.2       1 <0>        -0.4596
      7 C6         -0.8539   -1.8897    1.6937 C.2       1 <0>        -0.2399
      8 C7         -0.2277   -1.0191    0.9144 C.2       1 <0>        -0.0153
      9 C8          1.1206   -0.4658    1.3452 C.3       1 <0>        -0.0967
     10 C9          2.1075   -0.8465    0.2418 C.3       1 <0>        -0.1131
     11 C10         1.6828   -0.2995   -1.1295 C.3       1 <0>        -0.0604
     12 C11         0.2743   -0.7397   -1.5126 C.3       1 <0>        -0.0669
     13 C12         0.2568   -2.1430   -2.0956 C.3       1 <0>        -0.1123
     14 C13         1.0150   -2.2192   -3.4331 C.3       1 <0>        -0.1041
     15 C14         2.0435   -1.1218   -3.5100 C.3       1 <0>        -0.0210
     16 C15         2.6713   -0.8895   -2.1202 C.3       1 <0>        -0.0768
     17 C16         3.8318    0.0232   -2.5604 C.3       1 <0>        -0.0881
     18 C17         4.3022   -0.7359   -3.8049 C.2       1 <0>        -0.1309
     19 C18         3.2792   -1.4070   -4.3352 C.2       1 <0>         0.0608
     20 N1          3.3202   -2.2340   -5.4573 N.pl3     1 <0>        -0.4348
     21 C19         3.2829   -3.5966   -5.4593 C.2       1 <0>         0.2707
     22 N2          3.3392   -4.0430   -6.6801 N.2       1 <0>        -0.4910
     23 C20         3.4165   -2.9997   -7.5462 C.ar      1 <0>         0.0452
     24 C21         3.4003   -1.8243   -6.7759 C.ar      1 <0>         0.0530
     25 C22         3.4633   -0.5867   -7.3993 C.ar      1 <0>        -0.1086
     26 C23         3.5388   -0.5143   -8.7743 C.ar      1 <0>        -0.1004
     27 C24         3.5517   -1.6715   -9.5396 C.ar      1 <0>        -0.1273
     28 C25         3.4971   -2.9083   -8.9380 C.ar      1 <0>        -0.0641
     29 C26         1.4416    0.1480   -4.1106 C.3       1 <0>        -0.1477
     30 H1          0.0316    1.4310   -0.0380 H         1 <0>         0.0635
     31 H2         -1.3081    1.3747   -1.2087 H         1 <0>         0.0633
     32 H3         -1.6368    1.1818    0.5300 H         1 <0>         0.0585
     33 H4         -2.8654   -0.3852   -0.3543 H         1 <0>         0.0727
     34 H5         -2.2179   -1.0610   -1.8552 H         1 <0>         0.0818
     35 H6         -3.4366   -2.7340   -0.4252 H         1 <0>         0.0920
     36 H7         -1.7527   -3.1926   -0.7652 H         1 <0>         0.1012
     37 H8         -0.4464   -2.1414    2.6651 H         1 <0>         0.1340
     38 H9          1.0828    0.6107    1.4730 H         1 <0>         0.0860
     39 H10         1.4226   -0.9359    2.2854 H         1 <0>         0.0774
     40 H11         3.0933   -0.4476    0.4874 H         1 <0>         0.0703
     41 H12         2.1755   -1.9350    0.1806 H         1 <0>         0.0668
     42 H13         1.7638    0.7885   -1.1259 H         1 <0>         0.0830
     43 H14        -0.0927   -0.0560   -2.2971 H         1 <0>         0.0799
     44 H15         0.7090   -2.8412   -1.3816 H         1 <0>         0.0632
     45 H16        -0.7809   -2.4577   -2.2595 H         1 <0>         0.0708
     46 H17         1.5122   -3.1956   -3.5147 H         1 <0>         0.0625
     47 H18         0.3078   -2.1271   -4.2661 H         1 <0>         0.0645
     48 H19         3.0816   -1.8304   -1.7138 H         1 <0>         0.0872
     49 H20         3.5047    1.0263   -2.7954 H         1 <0>         0.0930
     50 H21         4.6164    0.0362   -1.8016 H         1 <0>         0.0799
     51 H22         5.3084   -0.7257   -4.1905 H         1 <0>         0.1322
     52 H23         3.2169   -4.2152   -4.5765 H         1 <0>         0.2111
     53 H24         3.4528    0.3179   -6.8094 H         1 <0>         0.1195
     54 H25         3.5877    0.4497   -9.2588 H         1 <0>         0.1304
     55 H26         3.6108   -1.6014  -10.6158 H         1 <0>         0.1311
     56 H27         3.5067   -3.8048   -9.5402 H         1 <0>         0.1306
     57 H28         0.7216    0.5743   -3.4121 H         1 <0>         0.0732
     58 H29         2.2347    0.8710   -4.3013 H         1 <0>         0.0590
     59 H30         0.9392   -0.0957   -5.0467 H         1 <0>         0.0575
@<TRIPOS>BOND
     1    1    2 1
     2    1   30 1
     3    1   31 1
     4    1   32 1
     5    2    8 1
     6    2   12 1
     7    2    3 1
     8    3    4 1
     9    3   33 1
    10    3   34 1
    11    4    5 1
    12    4   35 1
    13    4   36 1
    14    5    6 2
    15    5    7 1
    16    7    8 2
    17    7   37 1
    18    8    9 1
    19    9   10 1
    20    9   38 1
    21    9   39 1
    22   10   11 1
    23   10   40 1
    24   10   41 1
    25   11   16 1
    26   11   12 1
    27   11   42 1
    28   12   13 1
    29   12   43 1
    30   13   14 1
    31   13   44 1
    32   13   45 1
    33   14   15 1
    34   14   46 1
    35   14   47 1
    36   15   19 1
    37   15   16 1
    38   15   29 1
    39   16   17 1
    40   16   48 1
    41   17   18 1
    42   17   49 1
    43   17   50 1
    44   18   19 2
    45   18   51 1
    46   19   20 1
    47   20   24 1
    48   20   21 1
    49   21   22 2
    50   21   52 1
    51   22   23 1
    52   23   28 ar
    53   23   24 ar
    54   24   25 ar
    55   25   26 ar
    56   25   53 1
    57   26   27 ar
    58   26   54 1
    59   27   28 ar
    60   27   55 1
    61   28   56 1
    62   29   57 1
    63   29   58 1
    64   29   59 1
@<TRIPOS>MOLECULE
CHEMBL77789__7
   60    65     0     0     0
SMALL
USER_CHARGES

@<TRIPOS>ATOM
      1 C1         -0.9283    0.9698   -0.2707 C.3       1 <0>        -0.1546
      2 C2         -0.7468   -0.5517   -0.4052 C.3       1 <0>        -0.0280
      3 C3         -2.1200   -1.0668   -0.7693 C.3       1 <0>        -0.1048
      4 C4         -2.3892   -2.4734   -0.2482 C.3       1 <0>        -0.1683
      5 C5         -2.1017   -2.5116    1.2390 C.2       1 <0>         0.3843
      6 O1         -2.8743   -3.0349    2.0196 O.2       1 <0>        -0.4518
      7 C6         -0.8539   -1.8897    1.6937 C.2       1 <0>        -0.2322
      8 C7         -0.2277   -1.0191    0.9144 C.2       1 <0>        -0.0234
      9 C8          1.1206   -0.4658    1.3452 C.3       1 <0>        -0.0977
     10 C9          2.1075   -0.8465    0.2418 C.3       1 <0>        -0.1126
     11 C10         1.6828   -0.2995   -1.1295 C.3       1 <0>        -0.0627
     12 C11         0.2743   -0.7397   -1.5126 C.3       1 <0>        -0.0671
     13 C12         0.2568   -2.1430   -2.0956 C.3       1 <0>        -0.1156
     14 C13         1.0150   -2.2192   -3.4331 C.3       1 <0>        -0.1058
     15 C14         2.0435   -1.1218   -3.5100 C.3       1 <0>        -0.0143
     16 C15         2.6713   -0.8895   -2.1202 C.3       1 <0>        -0.0756
     17 C16         3.8318    0.0232   -2.5604 C.3       1 <0>        -0.0990
     18 C17         4.3022   -0.7359   -3.8049 C.2       1 <0>        -0.0612
     19 C18         3.2792   -1.4070   -4.3352 C.2       1 <0>        -0.0048
     20 N1          3.3202   -2.2340   -5.4573 N.pl3     1 <0>        -0.3594
     21 C19         3.2829   -3.5966   -5.4593 C.cat     1 <0>         0.3741
     22 N2          3.3392   -4.0430   -6.6801 N.pl3     1 <0>        -0.4880
     23 C20         3.4165   -2.9997   -7.5462 C.ar      1 <0>         0.0435
     24 C21         3.4003   -1.8243   -6.7759 C.ar      1 <0>         0.0783
     25 C22         3.4633   -0.5867   -7.3993 C.ar      1 <0>        -0.0847
     26 C23         3.5388   -0.5143   -8.7743 C.ar      1 <0>        -0.0657
     27 C24         3.5517   -1.6715   -9.5396 C.ar      1 <0>        -0.0774
     28 C25         3.4971   -2.9083   -8.9380 C.ar      1 <0>        -0.0763
     29 C26         1.4416    0.1480   -4.1106 C.3       1 <0>        -0.1552
     30 H1          0.0316    1.4310   -0.0380 H         1 <0>         0.0638
     31 H2         -1.3081    1.3747   -1.2087 H         1 <0>         0.0635
     32 H3         -1.6368    1.1818    0.5300 H         1 <0>         0.0618
     33 H4         -2.8654   -0.3852   -0.3543 H         1 <0>         0.0758
     34 H5         -2.2179   -1.0610   -1.8552 H         1 <0>         0.0802
     35 H6         -3.4366   -2.7340   -0.4252 H         1 <0>         0.0936
     36 H7         -1.7527   -3.1926   -0.7652 H         1 <0>         0.0981
     37 H8         -0.4464   -2.1414    2.6651 H         1 <0>         0.1359
     38 H9          1.0828    0.6107    1.4730 H         1 <0>         0.0878
     39 H10         1.4226   -0.9359    2.2854 H         1 <0>         0.0802
     40 H11         3.0933   -0.4476    0.4874 H         1 <0>         0.0717
     41 H12         2.1755   -1.9350    0.1806 H         1 <0>         0.0664
     42 H13         1.7638    0.7885   -1.1259 H         1 <0>         0.0878
     43 H14        -0.0927   -0.0560   -2.2971 H         1 <0>         0.0804
     44 H15         0.7090   -2.8412   -1.3816 H         1 <0>         0.0680
     45 H16        -0.7809   -2.4577   -2.2595 H         1 <0>         0.0766
     46 H17         1.5122   -3.1956   -3.5147 H         1 <0>         0.0553
     47 H18         0.3078   -2.1271   -4.2661 H         1 <0>         0.0680
     48 H19         3.0816   -1.8304   -1.7138 H         1 <0>         0.0926
     49 H20         3.5047    1.0263   -2.7954 H         1 <0>         0.1080
     50 H21         4.6164    0.0362   -1.8016 H         1 <0>         0.0950
     51 H22         5.3084   -0.7257   -4.1905 H         1 <0>         0.1442
     52 H23         3.2169   -4.2152   -4.5765 H         1 <0>         0.2631
     53 H24         3.4528    0.3179   -6.8094 H         1 <0>         0.1488
     54 H25         3.5877    0.4497   -9.2588 H         1 <0>         0.1571
     55 H26         3.6108   -1.6014  -10.6158 H         1 <0>         0.1578
     56 H27         3.5067   -3.8048   -9.5402 H         1 <0>         0.1541
     57 H28         0.7216    0.5743   -3.4121 H         1 <0>         0.0834
     58 H29         2.2347    0.8710   -4.3013 H         1 <0>         0.0632
     59 H30         0.9392   -0.0957   -5.0467 H         1 <0>         0.0593
     60 H31         3.3280   -4.9793   -6.9333 H         1 <0>         0.4644
@<TRIPOS>BOND
     1    1    2 1
     2    1   30 1
     3    1   31 1
     4    1   32 1
     5    2    8 1
     6    2   12 1
     7    2    3 1
     8    3    4 1
     9    3   33 1
    10    3   34 1
    11    4    5 1
    12    4   35 1
    13    4   36 1
    14    5    6 2
    15    5    7 1
    16    7    8 2
    17    7   37 1
    18    8    9 1
    19    9   10 1
    20    9   38 1
    21    9   39 1
    22   10   11 1
    23   10   40 1
    24   10   41 1
    25   11   16 1
    26   11   12 1
    27   11   42 1
    28   12   13 1
    29   12   43 1
    30   13   14 1
    31   13   44 1
    32   13   45 1
    33   14   15 1
    34   14   46 1
    35   14   47 1
    36   15   19 1
    37   15   16 1
    38   15   29 1
    39   16   17 1
    40   16   48 1
    41   17   18 1
    42   17   49 1
    43   17   50 1
    44   18   19 2
    45   18   51 1
    46   19   20 1
    47   20   24 1
    48   20   21 1
    49   21   22 2
    50   21   52 1
    51   22   23 1
    52   22   60 1
    53   23   28 ar
    54   23   24 ar
    55   24   25 ar
    56   25   26 ar
    57   25   53 1
    58   26   27 ar
    59   26   54 1
    60   27   28 ar
    61   27   55 1
    62   28   56 1
    63   29   57 1
    64   29   58 1
    65   29   59 1
@<TRIPOS>MOLECULE
CHEMBL77789__8
   59    64     0     0     0
SMALL
USER_CHARGES

@<TRIPOS>ATOM
      1 C1         -0.0186    1.5214    0.0104 C.3       1 <0>        -0.1512
      2 C2          0.0021   -0.0041    0.0020 C.3       1 <0>        -0.0163
      3 C3         -1.4531   -0.4757    0.0126 C.3       1 <0>        -0.1083
      4 C4         -2.1306   -0.2164    1.3518 C.3       1 <0>        -0.1670
      5 C5         -1.3327   -0.8986    2.4418 C.2       1 <0>         0.3869
      6 O1         -1.8875   -1.4469    3.3765 O.2       1 <0>        -0.4613
      7 C6          0.1274   -0.8760    2.3378 C.2       1 <0>        -0.2413
      8 C7          0.7368   -0.4517    1.2344 C.2       1 <0>        -0.0146
      9 C8          2.2530   -0.4099    1.2303 C.3       1 <0>        -0.0983
     10 C9          2.7520   -1.1831    0.0084 C.3       1 <0>        -0.1142
     11 C10         2.1769   -0.5656   -1.2657 C.3       1 <0>        -0.0665
     12 C11         0.6631   -0.5533   -1.2459 C.3       1 <0>        -0.0650
     13 C12         0.1081    0.0118   -2.5434 C.3       1 <0>        -0.1086
     14 C13         1.2128    0.5028   -3.4653 C.3       1 <0>        -0.1083
     15 C14         2.2060    1.4446   -2.7914 C.3       1 <0>        -0.0106
     16 C15         2.7662    0.8171   -1.5081 C.3       1 <0>        -0.0708
     17 C16         4.2787    0.6850   -1.7822 C.3       1 <0>        -0.0959
     18 C17         4.5032    1.1984   -3.1801 C.2       1 <0>        -0.1254
     19 C18         3.3884    1.6092   -3.7288 C.2       1 <0>         0.0640
     20 N1          3.2929    2.1381   -5.0156 N.pl3     1 <0>        -0.4373
     21 C19         2.7811    1.5103   -6.1119 C.2       1 <0>         0.2690
     22 N2          2.8468    2.2953   -7.1474 N.2       1 <0>        -0.4915
     23 C20         3.4046    3.4806   -6.7888 C.ar      1 <0>         0.0447
     24 C21         3.6943    3.3996   -5.4159 C.ar      1 <0>         0.0544
     25 C22         4.2732    4.4794   -4.7653 C.ar      1 <0>        -0.1082
     26 C23         4.5600    5.6305   -5.4684 C.ar      1 <0>        -0.1004
     27 C24         4.2731    5.7169   -6.8231 C.ar      1 <0>        -0.1274
     28 C25         3.7052    4.6530   -7.4867 C.ar      1 <0>        -0.0643
     29 C26         1.5758    2.8163   -2.5280 C.3       1 <0>        -0.1456
     30 H1          1.0040    1.8987    0.0027 H         1 <0>         0.0662
     31 H2         -0.5458    1.8825   -0.8727 H         1 <0>         0.0701
     32 H3         -0.5288    1.8729    0.9072 H         1 <0>         0.0599
     33 H4         -1.9904    0.0527   -0.7742 H         1 <0>         0.0811
     34 H5         -1.4681   -1.5444   -0.2006 H         1 <0>         0.0690
     35 H6         -2.1952    0.8536    1.5498 H         1 <0>         0.1021
     36 H7         -3.1455   -0.6295    1.3332 H         1 <0>         0.0934
     37 H8          0.7245   -1.2124    3.1778 H         1 <0>         0.1317
     38 H9          2.5985    0.6203    1.1872 H         1 <0>         0.0859
     39 H10         2.6313   -0.8824    2.1384 H         1 <0>         0.0772
     40 H11         3.8433   -1.1482   -0.0203 H         1 <0>         0.0748
     41 H12         2.4363   -2.2265    0.0871 H         1 <0>         0.0688
     42 H13         2.4985   -1.2073   -2.1133 H         1 <0>         0.0751
     43 H14         0.3685   -1.6402   -1.2716 H         1 <0>         0.0615
     44 H15        -0.4329   -0.7962   -3.0604 H         1 <0>         0.0639
     45 H16        -0.6052    0.8075   -2.3596 H         1 <0>         0.0711
     46 H17         1.7571   -0.3615   -3.8579 H         1 <0>         0.0630
     47 H18         0.7558    1.0238   -4.3134 H         1 <0>         0.0621
     48 H19         2.5991    1.4700   -0.6464 H         1 <0>         0.0914
     49 H20         4.8460    1.2790   -1.0611 H         1 <0>         0.0846
     50 H21         4.5850   -0.3625   -1.7111 H         1 <0>         0.0886
     51 H22         5.4688    1.2259   -3.6731 H         1 <0>         0.1317
     52 H23         2.3801    0.5075   -6.1200 H         1 <0>         0.2102
     53 H24         4.4984    4.4188   -3.7108 H         1 <0>         0.1198
     54 H25         5.0107    6.4706   -4.9610 H         1 <0>         0.1303
     55 H26         4.5022    6.6241   -7.3624 H         1 <0>         0.1308
     56 H27         3.4838    4.7278   -8.5411 H         1 <0>         0.1303
     57 H28         0.7173    2.7007   -1.8663 H         1 <0>         0.0739
     58 H29         2.3110    3.4698   -2.0585 H         1 <0>         0.0565
     59 H30         1.2507    3.2540   -3.4718 H         1 <0>         0.0543
@<TRIPOS>BOND
     1    1    2 1
     2    1   30 1
     3    1   31 1
     4    1   32 1
     5    2    8 1
     6    2   12 1
     7    2    3 1
     8    3    4 1
     9    3   33 1
    10    3   34 1
    11    4    5 1
    12    4   35 1
    13    4   36 1
    14    5    6 2
    15    5    7 1
    16    7    8 2
    17    7   37 1
    18    8    9 1
    19    9   10 1
    20    9   38 1
    21    9   39 1
    22   10   11 1
    23   10   40 1
    24   10   41 1
    25   11   16 1
    26   11   12 1
    27   11   42 1
    28   12   13 1
    29   12   43 1
    30   13   14 1
    31   13   44 1
    32   13   45 1
    33   14   15 1
    34   14   46 1
    35   14   47 1
    36   15   19 1
    37   15   16 1
    38   15   29 1
    39   16   17 1
    40   16   48 1
    41   17   18 1
    42   17   49 1
    43   17   50 1
    44   18   19 2
    45   18   51 1
    46   19   20 1
    47   20   24 1
    48   20   21 1
    49   21   22 2
    50   21   52 1
    51   22   23 1
    52   23   28 ar
    53   23   24 ar
    54   24   25 ar
    55   25   26 ar
    56   25   53 1
    57   26   27 ar
    58   26   54 1
    59   27   28 ar
    60   27   55 1
    61   28   56 1
    62   29   57 1
    63   29   58 1
    64   29   59 1
@<TRIPOS>MOLECULE
CHEMBL77789__9
   60    65     0     0     0
SMALL
USER_CHARGES

@<TRIPOS>ATOM
      1 C1         -0.0186    1.5214    0.0104 C.3       1 <0>        -0.1510
      2 C2          0.0021   -0.0041    0.0020 C.3       1 <0>        -0.0150
      3 C3         -1.4531   -0.4757    0.0126 C.3       1 <0>        -0.1081
      4 C4         -2.1306   -0.2164    1.3518 C.3       1 <0>        -0.1680
      5 C5         -1.3327   -0.8986    2.4418 C.2       1 <0>         0.3831
      6 O1         -1.8875   -1.4469    3.3765 O.2       1 <0>        -0.4528
      7 C6          0.1274   -0.8760    2.3378 C.2       1 <0>        -0.2297
      8 C7          0.7368   -0.4517    1.2344 C.2       1 <0>        -0.0269
      9 C8          2.2530   -0.4099    1.2303 C.3       1 <0>        -0.0977
     10 C9          2.7520   -1.1831    0.0084 C.3       1 <0>        -0.1162
     11 C10         2.1769   -0.5656   -1.2657 C.3       1 <0>        -0.0654
     12 C11         0.6631   -0.5533   -1.2459 C.3       1 <0>        -0.0683
     13 C12         0.1081    0.0118   -2.5434 C.3       1 <0>        -0.1107
     14 C13         1.2128    0.5028   -3.4653 C.3       1 <0>        -0.1114
     15 C14         2.2060    1.4446   -2.7914 C.3       1 <0>        -0.0029
     16 C15         2.7662    0.8171   -1.5081 C.3       1 <0>        -0.0722
     17 C16         4.2787    0.6850   -1.7822 C.3       1 <0>        -0.1083
     18 C17         4.5032    1.1984   -3.1801 C.2       1 <0>        -0.0593
     19 C18         3.3884    1.6092   -3.7288 C.2       1 <0>         0.0016
     20 N1          3.2929    2.1381   -5.0156 N.pl3     1 <0>        -0.3622
     21 C19         2.7811    1.5103   -6.1119 C.cat     1 <0>         0.3722
     22 N2          2.8468    2.2953   -7.1474 N.pl3     1 <0>        -0.4878
     23 C20         3.4046    3.4806   -6.7888 C.ar      1 <0>         0.0434
     24 C21         3.6943    3.3996   -5.4159 C.ar      1 <0>         0.0795
     25 C22         4.2732    4.4794   -4.7653 C.ar      1 <0>        -0.0842
     26 C23         4.5600    5.6305   -5.4684 C.ar      1 <0>        -0.0656
     27 C24         4.2731    5.7169   -6.8231 C.ar      1 <0>        -0.0772
     28 C25         3.7052    4.6530   -7.4867 C.ar      1 <0>        -0.0765
     29 C26         1.5758    2.8163   -2.5280 C.3       1 <0>        -0.1529
     30 H1          1.0040    1.8987    0.0027 H         1 <0>         0.0638
     31 H2         -0.5458    1.8825   -0.8727 H         1 <0>         0.0675
     32 H3         -0.5288    1.8729    0.9072 H         1 <0>         0.0637
     33 H4         -1.9904    0.0527   -0.7742 H         1 <0>         0.0799
     34 H5         -1.4681   -1.5444   -0.2006 H         1 <0>         0.0699
     35 H6         -2.1952    0.8536    1.5498 H         1 <0>         0.1027
     36 H7         -3.1455   -0.6295    1.3332 H         1 <0>         0.0956
     37 H8          0.7245   -1.2124    3.1778 H         1 <0>         0.1339
     38 H9          2.5985    0.6203    1.1872 H         1 <0>         0.0843
     39 H10         2.6313   -0.8824    2.1384 H         1 <0>         0.0802
     40 H11         3.8433   -1.1482   -0.0203 H         1 <0>         0.0753
     41 H12         2.4363   -2.2265    0.0871 H         1 <0>         0.0730
     42 H13         2.4985   -1.2073   -2.1133 H         1 <0>         0.0746
     43 H14         0.3685   -1.6402   -1.2716 H         1 <0>         0.0671
     44 H15        -0.4329   -0.7962   -3.0604 H         1 <0>         0.0688
     45 H16        -0.6052    0.8075   -2.3596 H         1 <0>         0.0750
     46 H17         1.7571   -0.3615   -3.8579 H         1 <0>         0.0665
     47 H18         0.7558    1.0238   -4.3134 H         1 <0>         0.0556
     48 H19         2.5991    1.4700   -0.6464 H         1 <0>         0.1012
     49 H20         4.8460    1.2790   -1.0611 H         1 <0>         0.1015
     50 H21         4.5850   -0.3625   -1.7111 H         1 <0>         0.1046
     51 H22         5.4688    1.2259   -3.6731 H         1 <0>         0.1432
     52 H23         2.3801    0.5075   -6.1200 H         1 <0>         0.2621
     53 H24         4.4984    4.4188   -3.7108 H         1 <0>         0.1492
     54 H25         5.0107    6.4706   -4.9610 H         1 <0>         0.1571
     55 H26         4.5022    6.6241   -7.3624 H         1 <0>         0.1577
     56 H27         3.4838    4.7278   -8.5411 H         1 <0>         0.1540
     57 H28         0.7173    2.7007   -1.8663 H         1 <0>         0.0845
     58 H29         2.3110    3.4698   -2.0585 H         1 <0>         0.0633
     59 H30         1.2507    3.2540   -3.4718 H         1 <0>         0.0507
     60 H31         2.5435    2.0684   -8.0403 H         1 <0>         0.4642
@<TRIPOS>BOND
     1    1    2 1
     2    1   30 1
     3    1   31 1
     4    1   32 1
     5    2    8 1
     6    2   12 1
     7    2    3 1
     8    3    4 1
     9    3   33 1
    10    3   34 1
    11    4    5 1
    12    4   35 1
    13    4   36 1
    14    5    6 2
    15    5    7 1
    16    7    8 2
    17    7   37 1
    18    8    9 1
    19    9   10 1
    20    9   38 1
    21    9   39 1
    22   10   11 1
    23   10   40 1
    24   10   41 1
    25   11   16 1
    26   11   12 1
    27   11   42 1
    28   12   13 1
    29   12   43 1
    30   13   14 1
    31   13   44 1
    32   13   45 1
    33   14   15 1
    34   14   46 1
    35   14   47 1
    36   15   19 1
    37   15   16 1
    38   15   29 1
    39   16   17 1
    40   16   48 1
    41   17   18 1
    42   17   49 1
    43   17   50 1
    44   18   19 2
    45   18   51 1
    46   19   20 1
    47   20   24 1
    48   20   21 1
    49   21   22 2
    50   21   52 1
    51   22   23 1
    52   22   60 1
    53   23   28 ar
    54   23   24 ar
    55   24   25 ar
    56   25   26 ar
    57   25   53 1
    58   26   27 ar
    59   26   54 1
    60   27   28 ar
    61   27   55 1
    62   28   56 1
    63   29   57 1
    64   29   58 1
    65   29   59 1
@<TRIPOS>MOLECULE
CHEMBL77789__10
   59    64     0     0     0
SMALL
USER_CHARGES

@<TRIPOS>ATOM
      1 C1         -0.0187    1.5256    0.0104 C.3       1 <0>        -0.1416
      2 C2          0.0021   -0.0041    0.0020 C.3       1 <0>        -0.0265
      3 C3         -1.4396   -0.5263    0.0561 C.3       1 <0>        -0.1062
      4 C4         -2.1402   -0.0117    1.3133 C.3       1 <0>        -0.1686
      5 C5         -1.3156   -0.3508    2.5281 C.2       1 <0>         0.3881
      6 O1         -1.8403   -0.3905    3.6226 O.2       1 <0>        -0.4643
      7 C6          0.1125   -0.6285    2.3940 C.2       1 <0>        -0.2409
      8 C7          0.7350   -0.4856    1.2303 C.2       1 <0>        -0.0149
      9 C8          2.2000   -0.8160    1.0960 C.3       1 <0>        -0.0922
     10 C9          2.3456   -1.9633    0.1005 C.3       1 <0>        -0.1102
     11 C10         1.3532   -1.8855   -1.0349 C.3       1 <0>        -0.0552
     12 C11         0.6782   -0.5358   -1.2505 C.3       1 <0>        -0.0649
     13 C12         1.5165    0.4794   -1.9970 C.3       1 <0>        -0.1060
     14 C13         2.0016   -0.0938   -3.3481 C.3       1 <0>        -0.1049
     15 C14         2.7891   -1.3434   -3.0633 C.3       1 <0>        -0.0248
     16 C15         1.8872   -2.3733   -2.3515 C.3       1 <0>        -0.0722
     17 C16         2.8718   -3.5541   -2.3739 C.3       1 <0>        -0.0867
     18 C17         3.3776   -3.4355   -3.8177 C.2       1 <0>        -0.1316
     19 C18         3.3098   -2.1612   -4.2145 C.2       1 <0>         0.0635
     20 N1          3.6557   -1.6635   -5.4704 N.pl3     1 <0>        -0.4345
     21 C19         2.7932   -1.2661   -6.4483 C.2       1 <0>         0.2717
     22 N2          3.4570   -0.8559   -7.4894 N.2       1 <0>        -0.4914
     23 C20         4.7903   -0.9611   -7.2532 C.ar      1 <0>         0.0450
     24 C21         4.9379   -1.4754   -5.9536 C.ar      1 <0>         0.0528
     25 C22         6.2059   -1.6873   -5.4325 C.ar      1 <0>        -0.1084
     26 C23         7.3180   -1.3895   -6.1914 C.ar      1 <0>        -0.1005
     27 C24         7.1779   -0.8784   -7.4737 C.ar      1 <0>        -0.1273
     28 C25         5.9277   -0.6683   -8.0099 C.ar      1 <0>        -0.0643
     29 C26         4.0238   -0.9544   -2.2522 C.3       1 <0>        -0.1469
     30 H1          1.0039    1.9028    0.0027 H         1 <0>         0.0637
     31 H2         -0.5459    1.8866   -0.8726 H         1 <0>         0.0674
     32 H3         -0.5289    1.8771    0.9072 H         1 <0>         0.0595
     33 H4         -1.9771   -0.1866   -0.8304 H         1 <0>         0.0800
     34 H5         -1.4223   -1.6183    0.0679 H         1 <0>         0.0714
     35 H6         -2.3054    1.0607    1.2568 H         1 <0>         0.1049
     36 H7         -3.1158   -0.5054    1.4021 H         1 <0>         0.0949
     37 H8          0.6732   -0.9538    3.2582 H         1 <0>         0.1305
     38 H9          2.7436    0.0534    0.7350 H         1 <0>         0.0826
     39 H10         2.5968   -1.1232    2.0632 H         1 <0>         0.0778
     40 H11         3.3667   -2.0613   -0.2134 H         1 <0>         0.0796
     41 H12         2.1183   -2.8918    0.6659 H         1 <0>         0.0566
     42 H13         0.5218   -2.5893   -0.7531 H         1 <0>         0.0666
     43 H14        -0.1684   -0.7584   -1.9436 H         1 <0>         0.0638
     44 H15         0.9028    1.3540   -2.2559 H         1 <0>         0.0669
     45 H16         2.3534    0.8116   -1.3977 H         1 <0>         0.0697
     46 H17         1.1405   -0.3270   -3.9755 H         1 <0>         0.0651
     47 H18         2.6341    0.6410   -3.8482 H         1 <0>         0.0654
     48 H19         1.0240   -2.6353   -3.0150 H         1 <0>         0.0820
     49 H20         3.6697   -3.4542   -1.6532 H         1 <0>         0.0947
     50 H21         2.3393   -4.4987   -2.2377 H         1 <0>         0.0792
     51 H22         3.7328   -4.2579   -4.4170 H         1 <0>         0.1327
     52 H23         1.7163   -1.2890   -6.3704 H         1 <0>         0.2111
     53 H24         6.3218   -2.0843   -4.4348 H         1 <0>         0.1196
     54 H25         8.3048   -1.5548   -5.7848 H         1 <0>         0.1304
     55 H26         8.0568   -0.6489   -8.0579 H         1 <0>         0.1310
     56 H27         5.8263   -0.2693   -9.0083 H         1 <0>         0.1306
     57 H28         3.7123   -0.4980   -1.3127 H         1 <0>         0.0728
     58 H29         4.6173   -1.8447   -2.0445 H         1 <0>         0.0576
     59 H30         4.6227   -0.2430   -2.8209 H         1 <0>         0.0556
@<TRIPOS>BOND
     1    1    2 1
     2    1   30 1
     3    1   31 1
     4    1   32 1
     5    2    8 1
     6    2   12 1
     7    2    3 1
     8    3    4 1
     9    3   33 1
    10    3   34 1
    11    4    5 1
    12    4   35 1
    13    4   36 1
    14    5    6 2
    15    5    7 1
    16    7    8 2
    17    7   37 1
    18    8    9 1
    19    9   10 1
    20    9   38 1
    21    9   39 1
    22   10   11 1
    23   10   40 1
    24   10   41 1
    25   11   16 1
    26   11   12 1
    27   11   42 1
    28   12   13 1
    29   12   43 1
    30   13   14 1
    31   13   44 1
    32   13   45 1
    33   14   15 1
    34   14   46 1
    35   14   47 1
    36   15   19 1
    37   15   16 1
    38   15   29 1
    39   16   17 1
    40   16   48 1
    41   17   18 1
    42   17   49 1
    43   17   50 1
    44   18   19 2
    45   18   51 1
    46   19   20 1
    47   20   24 1
    48   20   21 1
    49   21   22 2
    50   21   52 1
    51   22   23 1
    52   23   28 ar
    53   23   24 ar
    54   24   25 ar
    55   25   26 ar
    56   25   53 1
    57   26   27 ar
    58   26   54 1
    59   27   28 ar
    60   27   55 1
    61   28   56 1
    62   29   57 1
    63   29   58 1
    64   29   59 1
@<TRIPOS>MOLECULE
CHEMBL77789__11
   60    65     0     0     0
SMALL
USER_CHARGES

@<TRIPOS>ATOM
      1 C1         -0.0187    1.5256    0.0104 C.3       1 <0>        -0.1431
      2 C2          0.0021   -0.0041    0.0020 C.3       1 <0>        -0.0250
      3 C3         -1.4396   -0.5263    0.0561 C.3       1 <0>        -0.1054
      4 C4         -2.1402   -0.0117    1.3133 C.3       1 <0>        -0.1699
      5 C5         -1.3156   -0.3508    2.5281 C.2       1 <0>         0.3843
      6 O1         -1.8403   -0.3905    3.6226 O.2       1 <0>        -0.4561
      7 C6          0.1125   -0.6285    2.3940 C.2       1 <0>        -0.2299
      8 C7          0.7350   -0.4856    1.2303 C.2       1 <0>        -0.0269
      9 C8          2.2000   -0.8160    1.0960 C.3       1 <0>        -0.0909
     10 C9          2.3456   -1.9633    0.1005 C.3       1 <0>        -0.1132
     11 C10         1.3532   -1.8855   -1.0349 C.3       1 <0>        -0.0592
     12 C11         0.6782   -0.5358   -1.2505 C.3       1 <0>        -0.0641
     13 C12         1.5165    0.4794   -1.9970 C.3       1 <0>        -0.1075
     14 C13         2.0016   -0.0938   -3.3481 C.3       1 <0>        -0.1097
     15 C14         2.7891   -1.3434   -3.0633 C.3       1 <0>        -0.0197
     16 C15         1.8872   -2.3733   -2.3515 C.3       1 <0>        -0.0688
     17 C16         2.8718   -3.5541   -2.3739 C.3       1 <0>        -0.0979
     18 C17         3.3776   -3.4355   -3.8177 C.2       1 <0>        -0.0619
     19 C18         3.3098   -2.1612   -4.2145 C.2       1 <0>        -0.0017
     20 N1          3.6557   -1.6635   -5.4704 N.pl3     1 <0>        -0.3592
     21 C19         2.7932   -1.2661   -6.4483 C.cat     1 <0>         0.3756
     22 N2          3.4570   -0.8559   -7.4894 N.pl3     1 <0>        -0.4882
     23 C20         4.7903   -0.9611   -7.2532 C.ar      1 <0>         0.0434
     24 C21         4.9379   -1.4754   -5.9536 C.ar      1 <0>         0.0783
     25 C22         6.2059   -1.6873   -5.4325 C.ar      1 <0>        -0.0847
     26 C23         7.3180   -1.3895   -6.1914 C.ar      1 <0>        -0.0658
     27 C24         7.1779   -0.8784   -7.4737 C.ar      1 <0>        -0.0774
     28 C25         5.9277   -0.6683   -8.0099 C.ar      1 <0>        -0.0765
     29 C26         4.0238   -0.9544   -2.2522 C.3       1 <0>        -0.1542
     30 H1          1.0039    1.9028    0.0027 H         1 <0>         0.0631
     31 H2         -0.5459    1.8866   -0.8726 H         1 <0>         0.0665
     32 H3         -0.5289    1.8771    0.9072 H         1 <0>         0.0627
     33 H4         -1.9771   -0.1866   -0.8304 H         1 <0>         0.0792
     34 H5         -1.4223   -1.6183    0.0679 H         1 <0>         0.0713
     35 H6         -2.3054    1.0607    1.2568 H         1 <0>         0.1060
     36 H7         -3.1158   -0.5054    1.4021 H         1 <0>         0.0971
     37 H8          0.6732   -0.9538    3.2582 H         1 <0>         0.1323
     38 H9          2.7436    0.0534    0.7350 H         1 <0>         0.0813
     39 H10         2.5968   -1.1232    2.0632 H         1 <0>         0.0804
     40 H11         3.3667   -2.0613   -0.2134 H         1 <0>         0.0781
     41 H12         2.1183   -2.8918    0.6659 H         1 <0>         0.0606
     42 H13         0.5218   -2.5893   -0.7531 H         1 <0>         0.0740
     43 H14        -0.1684   -0.7584   -1.9436 H         1 <0>         0.0645
     44 H15         0.9028    1.3540   -2.2559 H         1 <0>         0.0717
     45 H16         2.3534    0.8116   -1.3977 H         1 <0>         0.0741
     46 H17         1.1405   -0.3270   -3.9755 H         1 <0>         0.0664
     47 H18         2.6341    0.6410   -3.8482 H         1 <0>         0.0639
     48 H19         1.0240   -2.6353   -3.0150 H         1 <0>         0.0870
     49 H20         3.6697   -3.4542   -1.6532 H         1 <0>         0.1094
     50 H21         2.3393   -4.4987   -2.2377 H         1 <0>         0.0944
     51 H22         3.7328   -4.2579   -4.4170 H         1 <0>         0.1447
     52 H23         1.7163   -1.2890   -6.3704 H         1 <0>         0.2633
     53 H24         6.3218   -2.0843   -4.4348 H         1 <0>         0.1488
     54 H25         8.3048   -1.5548   -5.7848 H         1 <0>         0.1570
     55 H26         8.0568   -0.6489   -8.0579 H         1 <0>         0.1577
     56 H27         5.8263   -0.2693   -9.0083 H         1 <0>         0.1540
     57 H28         3.7123   -0.4980   -1.3127 H         1 <0>         0.0828
     58 H29         4.6173   -1.8447   -2.0445 H         1 <0>         0.0620
     59 H30         4.6227   -0.2430   -2.8209 H         1 <0>         0.0566
     60 H31         3.0596   -0.5253   -8.3102 H         1 <0>         0.4643
@<TRIPOS>BOND
     1    1    2 1
     2    1   30 1
     3    1   31 1
     4    1   32 1
     5    2    8 1
     6    2   12 1
     7    2    3 1
     8    3    4 1
     9    3   33 1
    10    3   34 1
    11    4    5 1
    12    4   35 1
    13    4   36 1
    14    5    6 2
    15    5    7 1
    16    7    8 2
    17    7   37 1
    18    8    9 1
    19    9   10 1
    20    9   38 1
    21    9   39 1
    22   10   11 1
    23   10   40 1
    24   10   41 1
    25   11   16 1
    26   11   12 1
    27   11   42 1
    28   12   13 1
    29   12   43 1
    30   13   14 1
    31   13   44 1
    32   13   45 1
    33   14   15 1
    34   14   46 1
    35   14   47 1
    36   15   19 1
    37   15   16 1
    38   15   29 1
    39   16   17 1
    40   16   48 1
    41   17   18 1
    42   17   49 1
    43   17   50 1
    44   18   19 2
    45   18   51 1
    46   19   20 1
    47   20   24 1
    48   20   21 1
    49   21   22 2
    50   21   52 1
    51   22   23 1
    52   22   60 1
    53   23   28 ar
    54   23   24 ar
    55   24   25 ar
    56   25   26 ar
    57   25   53 1
    58   26   27 ar
    59   26   54 1
    60   27   28 ar
    61   27   55 1
    62   28   56 1
    63   29   57 1
    64   29   58 1
    65   29   59 1
@<TRIPOS>MOLECULE
CHEMBL77789__12
   59    64     0     0     0
SMALL
USER_CHARGES

@<TRIPOS>ATOM
      1 C1         -0.2199    1.0887    0.6014 C.3       1 <0>        -0.1409
      2 C2         -0.1280   -0.4261    0.4066 C.3       1 <0>        -0.0343
      3 C3         -1.5370   -1.0199    0.3519 C.3       1 <0>        -0.1082
      4 C4         -2.2501   -0.7310    1.6771 C.3       1 <0>        -0.1719
      5 C5         -1.4280   -1.2971    2.8080 C.2       1 <0>         0.3866
      6 O1         -1.9686   -1.6428    3.8377 O.2       1 <0>        -0.4630
      7 C6          0.0203   -1.4292    2.6620 C.2       1 <0>        -0.2406
      8 C7          0.6351   -1.0342    1.5525 C.2       1 <0>        -0.0148
      9 C8          2.1277   -1.1941    1.4039 C.3       1 <0>        -0.0943
     10 C9          2.4220   -2.0956    0.2142 C.3       1 <0>        -0.1105
     11 C10         1.3125   -2.0707   -0.8341 C.3       1 <0>        -0.0734
     12 C11         0.6058   -0.7296   -0.9067 C.3       1 <0>        -0.0634
     13 C12        -0.4599   -0.7670   -2.0133 C.3       1 <0>        -0.1172
     14 C13         0.2274   -1.0084   -3.3541 C.3       1 <0>        -0.1067
     15 C14         0.9578   -2.3297   -3.3458 C.3       1 <0>        -0.0207
     16 C15         1.9447   -2.4645   -2.1743 C.3       1 <0>        -0.0701
     17 C16         2.0625   -4.0232   -2.1505 C.3       1 <0>        -0.0968
     18 C17         0.6653   -4.4756   -2.5359 C.2       1 <0>        -0.1287
     19 C18         0.0447   -3.5195   -3.2080 C.2       1 <0>         0.0709
     20 N1         -1.2538   -3.6007   -3.7102 N.pl3     1 <0>        -0.4339
     21 C19        -2.4068   -3.4686   -2.9953 C.2       1 <0>         0.2679
     22 N2         -3.4363   -3.6002   -3.7800 N.2       1 <0>        -0.4888
     23 C20        -3.0167   -3.8257   -5.0520 C.ar      1 <0>         0.0447
     24 C21        -1.6115   -3.8243   -5.0273 C.ar      1 <0>         0.0568
     25 C22        -0.8980   -4.0279   -6.1994 C.ar      1 <0>        -0.1113
     26 C23        -1.5711   -4.2283   -7.3861 C.ar      1 <0>        -0.1005
     27 C24        -2.9582   -4.2274   -7.4166 C.ar      1 <0>        -0.1275
     28 C25        -3.6827   -4.0341   -6.2623 C.ar      1 <0>        -0.0639
     29 C26         1.7446   -2.4650   -4.6510 C.3       1 <0>        -0.1495
     30 H1          0.7839    1.5123    0.6349 H         1 <0>         0.0616
     31 H2         -0.7725    1.5289   -0.2286 H         1 <0>         0.0671
     32 H3         -0.7365    1.3040    1.5368 H         1 <0>         0.0605
     33 H4         -2.0929   -0.5656   -0.4683 H         1 <0>         0.0868
     34 H5         -1.4733   -2.0973    0.1990 H         1 <0>         0.0688
     35 H6         -2.3569    0.3460    1.8069 H         1 <0>         0.1040
     36 H7         -3.2345   -1.1991    1.6716 H         1 <0>         0.0961
     37 H8          0.5995   -1.8533    3.4689 H         1 <0>         0.1302
     38 H9          2.5837   -0.2174    1.2417 H         1 <0>         0.0836
     39 H10         2.5375   -1.6414    2.3094 H         1 <0>         0.0773
     40 H11         3.3528   -1.7713   -0.2511 H         1 <0>         0.0701
     41 H12         2.5468   -3.1182    0.5702 H         1 <0>         0.0666
     42 H13         0.5729   -2.8263   -0.5687 H         1 <0>         0.0711
     43 H14         1.3324    0.0568   -1.1108 H         1 <0>         0.0808
     44 H15        -1.1648   -1.5741   -1.8140 H         1 <0>         0.0669
     45 H16        -0.9906    0.1847   -2.0413 H         1 <0>         0.0699
     46 H17        -0.5218   -1.0168   -4.1457 H         1 <0>         0.0615
     47 H18         0.9397   -0.2052   -3.5426 H         1 <0>         0.0705
     48 H19         2.8903   -1.9542   -2.3573 H         1 <0>         0.1009
     49 H20         2.7943   -4.3659   -2.8820 H         1 <0>         0.0883
     50 H21         2.3200   -4.3753   -1.1516 H         1 <0>         0.0835
     51 H22         0.2396   -5.4388   -2.2964 H         1 <0>         0.1326
     52 H23        -2.4584   -3.2826   -1.9327 H         1 <0>         0.2077
     53 H24         0.1819   -4.0291   -6.1826 H         1 <0>         0.1224
     54 H25        -1.0147   -4.3867   -8.2981 H         1 <0>         0.1301
     55 H26        -3.4736   -4.3851   -8.3525 H         1 <0>         0.1307
     56 H27        -4.7623   -4.0336   -6.2938 H         1 <0>         0.1303
     57 H28         2.4695   -1.6542   -4.7240 H         1 <0>         0.0648
     58 H29         2.2671   -3.4216   -4.6627 H         1 <0>         0.0599
     59 H30         1.0579   -2.4157   -5.4960 H         1 <0>         0.0599
@<TRIPOS>BOND
     1    1    2 1
     2    1   30 1
     3    1   31 1
     4    1   32 1
     5    2    8 1
     6    2   12 1
     7    2    3 1
     8    3    4 1
     9    3   33 1
    10    3   34 1
    11    4    5 1
    12    4   35 1
    13    4   36 1
    14    5    6 2
    15    5    7 1
    16    7    8 2
    17    7   37 1
    18    8    9 1
    19    9   10 1
    20    9   38 1
    21    9   39 1
    22   10   11 1
    23   10   40 1
    24   10   41 1
    25   11   16 1
    26   11   12 1
    27   11   42 1
    28   12   13 1
    29   12   43 1
    30   13   14 1
    31   13   44 1
    32   13   45 1
    33   14   15 1
    34   14   46 1
    35   14   47 1
    36   15   19 1
    37   15   16 1
    38   15   29 1
    39   16   17 1
    40   16   48 1
    41   17   18 1
    42   17   49 1
    43   17   50 1
    44   18   19 2
    45   18   51 1
    46   19   20 1
    47   20   24 1
    48   20   21 1
    49   21   22 2
    50   21   52 1
    51   22   23 1
    52   23   28 ar
    53   23   24 ar
    54   24   25 ar
    55   25   26 ar
    56   25   53 1
    57   26   27 ar
    58   26   54 1
    59   27   28 ar
    60   27   55 1
    61   28   56 1
    62   29   57 1
    63   29   58 1
    64   29   59 1
@<TRIPOS>MOLECULE
CHEMBL77789__13
   60    65     0     0     0
SMALL
USER_CHARGES

@<TRIPOS>ATOM
      1 C1         -0.2199    1.0887    0.6014 C.3       1 <0>        -0.1442
      2 C2         -0.1280   -0.4261    0.4066 C.3       1 <0>        -0.0333
      3 C3         -1.5370   -1.0199    0.3519 C.3       1 <0>        -0.1064
      4 C4         -2.2501   -0.7310    1.6771 C.3       1 <0>        -0.1734
      5 C5         -1.4280   -1.2971    2.8080 C.2       1 <0>         0.3825
      6 O1         -1.9686   -1.6428    3.8377 O.2       1 <0>        -0.4542
      7 C6          0.0203   -1.4292    2.6620 C.2       1 <0>        -0.2343
      8 C7          0.6351   -1.0342    1.5525 C.2       1 <0>        -0.0216
      9 C8          2.1277   -1.1941    1.4039 C.3       1 <0>        -0.0963
     10 C9          2.4220   -2.0956    0.2142 C.3       1 <0>        -0.1125
     11 C10         1.3125   -2.0707   -0.8341 C.3       1 <0>        -0.0733
     12 C11         0.6058   -0.7296   -0.9067 C.3       1 <0>        -0.0661
     13 C12        -0.4599   -0.7670   -2.0133 C.3       1 <0>        -0.1152
     14 C13         0.2274   -1.0084   -3.3541 C.3       1 <0>        -0.1141
     15 C14         0.9578   -2.3297   -3.3458 C.3       1 <0>        -0.0116
     16 C15         1.9447   -2.4645   -2.1743 C.3       1 <0>        -0.0693
     17 C16         2.0625   -4.0232   -2.1505 C.3       1 <0>        -0.1084
     18 C17         0.6653   -4.4756   -2.5359 C.2       1 <0>        -0.0626
     19 C18         0.0447   -3.5195   -3.2080 C.2       1 <0>         0.0067
     20 N1         -1.2538   -3.6007   -3.7102 N.pl3     1 <0>        -0.3578
     21 C19        -2.4068   -3.4686   -2.9953 C.cat     1 <0>         0.3678
     22 N2         -3.4363   -3.6002   -3.7800 N.pl3     1 <0>        -0.4860
     23 C20        -3.0167   -3.8257   -5.0520 C.ar      1 <0>         0.0438
     24 C21        -1.6115   -3.8243   -5.0273 C.ar      1 <0>         0.0826
     25 C22        -0.8980   -4.0279   -6.1994 C.ar      1 <0>        -0.0872
     26 C23        -1.5711   -4.2283   -7.3861 C.ar      1 <0>        -0.0655
     27 C24        -2.9582   -4.2274   -7.4166 C.ar      1 <0>        -0.0769
     28 C25        -3.6827   -4.0341   -6.2623 C.ar      1 <0>        -0.0762
     29 C26         1.7446   -2.4650   -4.6510 C.3       1 <0>        -0.1553
     30 H1          0.7839    1.5123    0.6349 H         1 <0>         0.0653
     31 H2         -0.7725    1.5289   -0.2286 H         1 <0>         0.0666
     32 H3         -0.7365    1.3040    1.5368 H         1 <0>         0.0633
     33 H4         -2.0929   -0.5656   -0.4683 H         1 <0>         0.0824
     34 H5         -1.4733   -2.0973    0.1990 H         1 <0>         0.0640
     35 H6         -2.3569    0.3460    1.8069 H         1 <0>         0.1070
     36 H7         -3.2345   -1.1991    1.6716 H         1 <0>         0.0951
     37 H8          0.5995   -1.8533    3.4689 H         1 <0>         0.1333
     38 H9          2.5837   -0.2174    1.2417 H         1 <0>         0.0862
     39 H10         2.5375   -1.6414    2.3094 H         1 <0>         0.0811
     40 H11         3.3528   -1.7713   -0.2511 H         1 <0>         0.0738
     41 H12         2.5468   -3.1182    0.5702 H         1 <0>         0.0690
     42 H13         0.5729   -2.8263   -0.5687 H         1 <0>         0.0683
     43 H14         1.3324    0.0568   -1.1108 H         1 <0>         0.0878
     44 H15        -1.1648   -1.5741   -1.8140 H         1 <0>         0.0518
     45 H16        -0.9906    0.1847   -2.0413 H         1 <0>         0.0771
     46 H17        -0.5218   -1.0168   -4.1457 H         1 <0>         0.0585
     47 H18         0.9397   -0.2052   -3.5426 H         1 <0>         0.0841
     48 H19         2.8903   -1.9542   -2.3573 H         1 <0>         0.1126
     49 H20         2.7943   -4.3659   -2.8820 H         1 <0>         0.1044
     50 H21         2.3200   -4.3753   -1.1516 H         1 <0>         0.0985
     51 H22         0.2396   -5.4388   -2.2964 H         1 <0>         0.1442
     52 H23        -2.4584   -3.2826   -1.9327 H         1 <0>         0.2593
     53 H24         0.1819   -4.0291   -6.1826 H         1 <0>         0.1513
     54 H25        -1.0147   -4.3867   -8.2981 H         1 <0>         0.1572
     55 H26        -3.4736   -4.3851   -8.3525 H         1 <0>         0.1579
     56 H27        -4.7623   -4.0336   -6.2938 H         1 <0>         0.1542
     57 H28         2.4695   -1.6542   -4.7240 H         1 <0>         0.0759
     58 H29         2.2671   -3.4216   -4.6627 H         1 <0>         0.0657
     59 H30         1.0579   -2.4157   -5.4960 H         1 <0>         0.0582
     60 H31        -4.3631   -3.5459   -3.4991 H         1 <0>         0.4643
@<TRIPOS>BOND
     1    1    2 1
     2    1   30 1
     3    1   31 1
     4    1   32 1
     5    2    8 1
     6    2   12 1
     7    2    3 1
     8    3    4 1
     9    3   33 1
    10    3   34 1
    11    4    5 1
    12    4   35 1
    13    4   36 1
    14    5    6 2
    15    5    7 1
    16    7    8 2
    17    7   37 1
    18    8    9 1
    19    9   10 1
    20    9   38 1
    21    9   39 1
    22   10   11 1
    23   10   40 1
    24   10   41 1
    25   11   16 1
    26   11   12 1
    27   11   42 1
    28   12   13 1
    29   12   43 1
    30   13   14 1
    31   13   44 1
    32   13   45 1
    33   14   15 1
    34   14   46 1
    35   14   47 1
    36   15   19 1
    37   15   16 1
    38   15   29 1
    39   16   17 1
    40   16   48 1
    41   17   18 1
    42   17   49 1
    43   17   50 1
    44   18   19 2
    45   18   51 1
    46   19   20 1
    47   20   24 1
    48   20   21 1
    49   21   22 2
    50   21   52 1
    51   22   23 1
    52   22   60 1
    53   23   28 ar
    54   23   24 ar
    55   24   25 ar
    56   25   26 ar
    57   25   53 1
    58   26   27 ar
    59   26   54 1
    60   27   28 ar
    61   27   55 1
    62   28   56 1
    63   29   57 1
    64   29   58 1
    65   29   59 1
@<TRIPOS>MOLECULE
CHEMBL77789__14
   59    64     0     0     0
SMALL
USER_CHARGES

@<TRIPOS>ATOM
      1 C1         -0.3576    2.0820   -0.8869 C.3       1 <0>        -0.1406
      2 C2         -0.4055    0.5719   -0.6465 C.3       1 <0>        -0.0353
      3 C3         -1.8299    0.0522   -0.8054 C.3       1 <0>        -0.1056
      4 C4         -2.7366    0.6653    0.2655 C.3       1 <0>        -0.1697
      5 C5         -2.1489    0.4041    1.6291 C.2       1 <0>         0.3872
      6 O1         -2.8719    0.3709    2.6040 O.2       1 <0>        -0.4641
      7 C6         -0.7115    0.1933    1.7806 C.2       1 <0>        -0.2400
      8 C7          0.1091    0.2619    0.7388 C.2       1 <0>        -0.0158
      9 C8          1.5904    0.0204    0.9163 C.3       1 <0>        -0.0963
     10 C9          1.9943   -1.2093    0.0998 C.3       1 <0>        -0.1067
     11 C10         1.0117   -1.4358   -1.0355 C.3       1 <0>        -0.0702
     12 C11         0.5302   -0.1249   -1.6497 C.3       1 <0>        -0.0683
     13 C12        -0.1923   -0.3667   -2.9671 C.3       1 <0>        -0.1094
     14 C13         0.6989   -1.0369   -4.0237 C.3       1 <0>        -0.1046
     15 C14         1.9043   -1.6737   -3.3847 C.3       1 <0>        -0.0203
     16 C15         1.4804   -2.3949   -2.0815 C.3       1 <0>        -0.0676
     17 C16         2.7901   -3.1645   -1.8330 C.3       1 <0>        -0.0869
     18 C17         3.0731   -3.6628   -3.2541 C.2       1 <0>        -0.1308
     19 C18         2.5492   -2.8153   -4.1389 C.2       1 <0>         0.0605
     20 N1          2.5815   -2.9428   -5.5272 N.pl3     1 <0>        -0.4347
     21 C19         1.5406   -3.3023   -6.3305 C.2       1 <0>         0.2707
     22 N2          1.9221   -3.3206   -7.5743 N.2       1 <0>        -0.4913
     23 C20         3.2329   -2.9746   -7.6565 C.ar      1 <0>         0.0450
     24 C21         3.6739   -2.7222   -6.3461 C.ar      1 <0>         0.0530
     25 C22         4.9878   -2.3391   -6.1193 C.ar      1 <0>        -0.1084
     26 C23         5.8562   -2.2044   -7.1819 C.ar      1 <0>        -0.1005
     27 C24         5.4250   -2.4491   -8.4777 C.ar      1 <0>        -0.1274
     28 C25         4.1269   -2.8371   -8.7211 C.ar      1 <0>        -0.0642
     29 C26         3.0091   -0.6402   -3.1612 C.3       1 <0>        -0.1474
     30 H1          0.6708    2.4319   -0.7963 H         1 <0>         0.0616
     31 H2         -0.7296    2.3026   -1.8874 H         1 <0>         0.0672
     32 H3         -0.9798    2.5875   -0.1483 H         1 <0>         0.0599
     33 H4         -2.2122    0.3225   -1.7929 H         1 <0>         0.0832
     34 H5         -1.8388   -1.0353   -0.7070 H         1 <0>         0.0725
     35 H6         -2.8492    1.7347    0.1059 H         1 <0>         0.1032
     36 H7         -3.7240    0.1957    0.2083 H         1 <0>         0.0943
     37 H8         -0.3078   -0.0223    2.7597 H         1 <0>         0.1302
     38 H9          2.1492    0.8868    0.5698 H         1 <0>         0.0836
     39 H10         1.8047   -0.1609    1.9691 H         1 <0>         0.0783
     40 H11         2.9940   -1.0528   -0.2993 H         1 <0>         0.0715
     41 H12         1.9998   -2.0810    0.7536 H         1 <0>         0.0706
     42 H13         0.1115   -1.8970   -0.5650 H         1 <0>         0.0663
     43 H14         1.3685    0.5550   -1.7982 H         1 <0>         0.0853
     44 H15        -1.0655   -1.0062   -2.7898 H         1 <0>         0.0676
     45 H16        -0.5550    0.5876   -3.3655 H         1 <0>         0.0676
     46 H17         0.1183   -1.8008   -4.5572 H         1 <0>         0.0622
     47 H18         1.0236   -0.2877   -4.7568 H         1 <0>         0.0624
     48 H19         0.6768   -3.1276   -2.3033 H         1 <0>         0.0835
     49 H20         3.5851   -2.5338   -1.4612 H         1 <0>         0.0951
     50 H21         2.6171   -4.0096   -1.1630 H         1 <0>         0.0797
     51 H22         3.6152   -4.5625   -3.4960 H         1 <0>         0.1325
     52 H23         0.5448   -3.5380   -5.9850 H         1 <0>         0.2110
     53 H24         5.3295   -2.1464   -5.1130 H         1 <0>         0.1196
     54 H25         6.8789   -1.9061   -7.0043 H         1 <0>         0.1304
     55 H26         6.1149   -2.3398   -9.3015 H         1 <0>         0.1310
     56 H27         3.7981   -3.0249   -9.7326 H         1 <0>         0.1306
     57 H28         2.6924    0.0710   -2.3983 H         1 <0>         0.0748
     58 H29         3.9176   -1.1449   -2.8327 H         1 <0>         0.0579
     59 H30         3.2047   -0.1101   -4.0933 H         1 <0>         0.0566
@<TRIPOS>BOND
     1    1    2 1
     2    1   30 1
     3    1   31 1
     4    1   32 1
     5    2    8 1
     6    2   12 1
     7    2    3 1
     8    3    4 1
     9    3   33 1
    10    3   34 1
    11    4    5 1
    12    4   35 1
    13    4   36 1
    14    5    6 2
    15    5    7 1
    16    7    8 2
    17    7   37 1
    18    8    9 1
    19    9   10 1
    20    9   38 1
    21    9   39 1
    22   10   11 1
    23   10   40 1
    24   10   41 1
    25   11   16 1
    26   11   12 1
    27   11   42 1
    28   12   13 1
    29   12   43 1
    30   13   14 1
    31   13   44 1
    32   13   45 1
    33   14   15 1
    34   14   46 1
    35   14   47 1
    36   15   19 1
    37   15   16 1
    38   15   29 1
    39   16   17 1
    40   16   48 1
    41   17   18 1
    42   17   49 1
    43   17   50 1
    44   18   19 2
    45   18   51 1
    46   19   20 1
    47   20   24 1
    48   20   21 1
    49   21   22 2
    50   21   52 1
    51   22   23 1
    52   23   28 ar
    53   23   24 ar
    54   24   25 ar
    55   25   26 ar
    56   25   53 1
    57   26   27 ar
    58   26   54 1
    59   27   28 ar
    60   27   55 1
    61   28   56 1
    62   29   57 1
    63   29   58 1
    64   29   59 1
@<TRIPOS>MOLECULE
CHEMBL77789__15
   60    65     0     0     0
SMALL
USER_CHARGES

@<TRIPOS>ATOM
      1 C1         -0.3576    2.0820   -0.8869 C.3       1 <0>        -0.1425
      2 C2         -0.4055    0.5719   -0.6465 C.3       1 <0>        -0.0329
      3 C3         -1.8299    0.0522   -0.8054 C.3       1 <0>        -0.1047
      4 C4         -2.7366    0.6653    0.2655 C.3       1 <0>        -0.1708
      5 C5         -2.1489    0.4041    1.6291 C.2       1 <0>         0.3835
      6 O1         -2.8719    0.3709    2.6040 O.2       1 <0>        -0.4561
      7 C6         -0.7115    0.1933    1.7806 C.2       1 <0>        -0.2300
      8 C7          0.1091    0.2619    0.7388 C.2       1 <0>        -0.0268
      9 C8          1.5904    0.0204    0.9163 C.3       1 <0>        -0.0961
     10 C9          1.9943   -1.2093    0.0998 C.3       1 <0>        -0.1073
     11 C10         1.0117   -1.4358   -1.0355 C.3       1 <0>        -0.0749
     12 C11         0.5302   -0.1249   -1.6497 C.3       1 <0>        -0.0694
     13 C12        -0.1923   -0.3667   -2.9671 C.3       1 <0>        -0.1122
     14 C13         0.6989   -1.0369   -4.0237 C.3       1 <0>        -0.1065
     15 C14         1.9043   -1.6737   -3.3847 C.3       1 <0>        -0.0144
     16 C15         1.4804   -2.3949   -2.0815 C.3       1 <0>        -0.0639
     17 C16         2.7901   -3.1645   -1.8330 C.3       1 <0>        -0.0983
     18 C17         3.0731   -3.6628   -3.2541 C.2       1 <0>        -0.0615
     19 C18         2.5492   -2.8153   -4.1389 C.2       1 <0>        -0.0048
     20 N1          2.5815   -2.9428   -5.5272 N.pl3     1 <0>        -0.3592
     21 C19         1.5406   -3.3023   -6.3305 C.cat     1 <0>         0.3740
     22 N2          1.9221   -3.3206   -7.5743 N.pl3     1 <0>        -0.4882
     23 C20         3.2329   -2.9746   -7.6565 C.ar      1 <0>         0.0435
     24 C21         3.6739   -2.7222   -6.3461 C.ar      1 <0>         0.0782
     25 C22         4.9878   -2.3391   -6.1193 C.ar      1 <0>        -0.0845
     26 C23         5.8562   -2.2044   -7.1819 C.ar      1 <0>        -0.0659
     27 C24         5.4250   -2.4491   -8.4777 C.ar      1 <0>        -0.0774
     28 C25         4.1269   -2.8371   -8.7211 C.ar      1 <0>        -0.0765
     29 C26         3.0091   -0.6402   -3.1612 C.3       1 <0>        -0.1548
     30 H1          0.6708    2.4319   -0.7963 H         1 <0>         0.0623
     31 H2         -0.7296    2.3026   -1.8874 H         1 <0>         0.0663
     32 H3         -0.9798    2.5875   -0.1483 H         1 <0>         0.0629
     33 H4         -2.2122    0.3225   -1.7929 H         1 <0>         0.0817
     34 H5         -1.8388   -1.0353   -0.7070 H         1 <0>         0.0716
     35 H6         -2.8492    1.7347    0.1059 H         1 <0>         0.1046
     36 H7         -3.7240    0.1957    0.2083 H         1 <0>         0.0960
     37 H8         -0.3078   -0.0223    2.7597 H         1 <0>         0.1322
     38 H9          2.1492    0.8868    0.5698 H         1 <0>         0.0841
     39 H10         1.8047   -0.1609    1.9691 H         1 <0>         0.0810
     40 H11         2.9940   -1.0528   -0.2993 H         1 <0>         0.0704
     41 H12         1.9998   -2.0810    0.7536 H         1 <0>         0.0730
     42 H13         0.1115   -1.8970   -0.5650 H         1 <0>         0.0730
     43 H14         1.3685    0.5550   -1.7982 H         1 <0>         0.0866
     44 H15        -1.0655   -1.0062   -2.7898 H         1 <0>         0.0723
     45 H16        -0.5550    0.5876   -3.3655 H         1 <0>         0.0731
     46 H17         0.1183   -1.8008   -4.5572 H         1 <0>         0.0566
     47 H18         1.0236   -0.2877   -4.7568 H         1 <0>         0.0647
     48 H19         0.6768   -3.1276   -2.3033 H         1 <0>         0.0884
     49 H20         3.5851   -2.5338   -1.4612 H         1 <0>         0.1099
     50 H21         2.6171   -4.0096   -1.1630 H         1 <0>         0.0949
     51 H22         3.6152   -4.5625   -3.4960 H         1 <0>         0.1445
     52 H23         0.5448   -3.5380   -5.9850 H         1 <0>         0.2631
     53 H24         5.3295   -2.1464   -5.1130 H         1 <0>         0.1488
     54 H25         6.8789   -1.9061   -7.0043 H         1 <0>         0.1570
     55 H26         6.1149   -2.3398   -9.3015 H         1 <0>         0.1577
     56 H27         3.7981   -3.0249   -9.7326 H         1 <0>         0.1540
     57 H28         2.6924    0.0710   -2.3983 H         1 <0>         0.0850
     58 H29         3.9176   -1.1449   -2.8327 H         1 <0>         0.0621
     59 H30         3.2047   -0.1101   -4.0933 H         1 <0>         0.0583
     60 H31         1.3561   -3.5473   -8.3287 H         1 <0>         0.4643
@<TRIPOS>BOND
     1    1    2 1
     2    1   30 1
     3    1   31 1
     4    1   32 1
     5    2    8 1
     6    2   12 1
     7    2    3 1
     8    3    4 1
     9    3   33 1
    10    3   34 1
    11    4    5 1
    12    4   35 1
    13    4   36 1
    14    5    6 2
    15    5    7 1
    16    7    8 2
    17    7   37 1
    18    8    9 1
    19    9   10 1
    20    9   38 1
    21    9   39 1
    22   10   11 1
    23   10   40 1
    24   10   41 1
    25   11   16 1
    26   11   12 1
    27   11   42 1
    28   12   13 1
    29   12   43 1
    30   13   14 1
    31   13   44 1
    32   13   45 1
    33   14   15 1
    34   14   46 1
    35   14   47 1
    36   15   19 1
    37   15   16 1
    38   15   29 1
    39   16   17 1
    40   16   48 1
    41   17   18 1
    42   17   49 1
    43   17   50 1
    44   18   19 2
    45   18   51 1
    46   19   20 1
    47   20   24 1
    48   20   21 1
    49   21   22 2
    50   21   52 1
    51   22   23 1
    52   22   60 1
    53   23   28 ar
    54   23   24 ar
    55   24   25 ar
    56   25   26 ar
    57   25   53 1
    58   26   27 ar
    59   26   54 1
    60   27   28 ar
    61   27   55 1
    62   28   56 1
    63   29   57 1
    64   29   58 1
    65   29   59 1
@<TRIPOS>MOLECULE
CHEMBL467887
   45    46     0     0     0
SMALL
USER_CHARGES

@<TRIPOS>ATOM
      1 C1         -0.0187    1.5258    0.0104 C.3       1 <0>        -0.1460
      2 C2          0.0021   -0.0041    0.0020 C.3       1 <0>        -0.0672
      3 C3          0.7421   -0.5109    1.2415 C.3       1 <0>        -0.1456
      4 C4         -1.4333   -0.5336    0.0129 C.3       1 <0>         0.0841
      5 O1         -2.1022   -0.0728    1.1886 O.3       1 <0>        -0.5630
      6 C5          0.7182   -0.4975   -1.2568 C.3       1 <0>         0.1499
      7 C6          2.1458    0.0633   -1.2960 C.3       1 <0>        -0.1657
      8 C7          2.8630   -0.4977   -2.5237 C.3       1 <0>         0.0926
      9 C8          2.0325   -0.2858   -3.7620 C.ar      1 <0>        -0.2286
     10 C9          2.6540   -0.3177   -4.9993 C.ar      1 <0>         0.0079
     11 C10         1.9189   -0.1301   -6.1536 C.ar      1 <0>        -0.0971
     12 C11         0.5556    0.0911   -6.0810 C.ar      1 <0>         0.0168
     13 C12        -0.0715    0.1259   -4.8519 C.ar      1 <0>        -0.1797
     14 C13         0.6666   -0.0617   -3.6883 C.ar      1 <0>         0.2927
     15 N1          0.0132   -0.0146   -2.4519 N.pl3     1 <0>        -0.7206
     16 N2          2.5919   -0.1655   -7.4713 N.pl3     1 <0>         0.0343
     17 O2          3.7837   -0.3584   -7.5364 O.2       1 <0>        -0.1603
     18 O3          1.9500   -0.0014   -8.4825 O.3       1 <0>        -0.1445
     19 N3          3.0955   -1.9359   -2.3353 N.4       1 <0>        -0.3883
     20 C14         3.7848   -2.4790   -3.5134 C.3       1 <0>        -0.0585
     21 C15         3.9263   -2.1454   -1.1420 C.3       1 <0>        -0.0563
     22 H1          1.0039    1.9031    0.0027 H         1 <0>         0.0608
     23 H2         -0.5459    1.8868   -0.8726 H         1 <0>         0.0568
     24 H3         -0.5289    1.8773    0.9072 H         1 <0>         0.0792
     25 H4          0.2319   -0.1594    2.1383 H         1 <0>         0.0839
     26 H5          0.7568   -1.6008    1.2356 H         1 <0>         0.0587
     27 H6          1.7647   -0.1336    1.2338 H         1 <0>         0.0603
     28 H7         -1.9605   -0.1726   -0.8702 H         1 <0>         0.0436
     29 H8         -1.4185   -1.6235    0.0069 H         1 <0>         0.0498
     30 H9         -3.0191   -0.3710    1.2619 H         1 <0>         0.3907
     31 H10         0.7484   -1.5871   -1.2610 H         1 <0>         0.0741
     32 H11         2.1094    1.1508   -1.3595 H         1 <0>         0.1280
     33 H12         2.6799   -0.2340   -0.3935 H         1 <0>         0.1167
     34 H13         3.8220    0.0066   -2.6425 H         1 <0>         0.1536
     35 H14         3.7182   -0.4905   -5.0619 H         1 <0>         0.1599
     36 H15        -0.0176    0.2361   -6.9848 H         1 <0>         0.1659
     37 H16        -1.1361    0.2983   -4.7939 H         1 <0>         0.1573
     38 H17        -0.8907    0.3309   -2.3850 H         1 <0>         0.4204
     39 H18         4.7402   -1.9704   -3.6420 H         1 <0>         0.1288
     40 H19         3.9572   -3.5462   -3.3736 H         1 <0>         0.1306
     41 H20         3.1683   -2.3236   -4.3988 H         1 <0>         0.1208
     42 H21         3.4148   -1.7425   -0.2679 H         1 <0>         0.1251
     43 H22         4.0988   -3.2126   -1.0022 H         1 <0>         0.1299
     44 H23         4.8817   -1.6368   -1.2706 H         1 <0>         0.1284
     45 H24         2.2111   -2.4068   -2.2163 H         1 <0>         0.4197
@<TRIPOS>BOND
     1    1    2 1
     2    1   22 1
     3    1   23 1
     4    1   24 1
     5    2    3 1
     6    2    4 1
     7    2    6 1
     8    3   25 1
     9    3   26 1
    10    3   27 1
    11    4    5 1
    12    4   28 1
    13    4   29 1
    14    5   30 1
    15    6   15 1
    16    6    7 1
    17    6   31 1
    18    7    8 1
    19    7   32 1
    20    7   33 1
    21    8    9 1
    22    8   19 1
    23    8   34 1
    24    9   14 ar
    25    9   10 ar
    26   10   11 ar
    27   10   35 1
    28   11   12 ar
    29   11   16 1
    30   12   13 ar
    31   12   36 1
    32   13   14 ar
    33   13   37 1
    34   14   15 1
    35   15   38 1
    36   16   17 2
    37   16   18 1
    38   19   20 1
    39   19   21 1
    40   19   45 1
    41   20   39 1
    42   20   40 1
    43   20   41 1
    44   21   42 1
    45   21   43 1
    46   21   44 1
@<TRIPOS>MOLECULE
CHEMBL467887__1
   45    46     0     0     0
SMALL
USER_CHARGES

@<TRIPOS>ATOM
      1 C1         -0.2675    1.2885   -0.2960 C.3       1 <0>        -0.1437
      2 C2         -0.1728   -0.2384   -0.3199 C.3       1 <0>        -0.0677
      3 C3          0.4962   -0.7281    0.9660 C.3       1 <0>        -0.1429
      4 C4         -1.5780   -0.8350   -0.4228 C.3       1 <0>         0.0840
      5 O1         -2.3539   -0.4234    0.7044 O.3       1 <0>        -0.5644
      6 C5          0.6580   -0.6791   -1.5267 C.3       1 <0>         0.1647
      7 C6          2.0560   -0.0514   -1.4523 C.3       1 <0>        -0.1663
      8 C7          2.8888   -0.5600   -2.6289 C.3       1 <0>         0.0934
      9 C8          2.1436   -0.3691   -3.9236 C.ar      1 <0>        -0.2169
     10 C9          2.8564   -0.3537   -5.1110 C.ar      1 <0>        -0.0137
     11 C10         2.2014   -0.1830   -6.3150 C.ar      1 <0>        -0.0896
     12 C11         0.8274   -0.0271   -6.3426 C.ar      1 <0>         0.0118
     13 C12         0.1093   -0.0408   -5.1639 C.ar      1 <0>        -0.1750
     14 C13         0.7669   -0.2106   -3.9502 C.ar      1 <0>         0.2968
     15 N1          0.0216   -0.2124   -2.7660 N.pl3     1 <0>        -0.7221
     16 N2          2.9717   -0.1663   -7.5786 N.pl3     1 <0>         0.0348
     17 O2          4.1729   -0.3020   -7.5562 O.2       1 <0>        -0.1645
     18 O3          2.3999   -0.0170   -8.6333 O.3       1 <0>        -0.1426
     19 N3          4.1555    0.1819   -2.6838 N.4       1 <0>        -0.3862
     20 C14         3.8769    1.6233   -2.7360 C.3       1 <0>        -0.0569
     21 C15         4.9520   -0.1198   -1.4869 C.3       1 <0>        -0.0523
     22 H1          0.7336    1.7134   -0.2227 H         1 <0>         0.0551
     23 H2         -0.7441    1.6373   -1.2121 H         1 <0>         0.0559
     24 H3         -0.8593    1.6024    0.5638 H         1 <0>         0.0785
     25 H4         -0.0957   -0.4141    1.8258 H         1 <0>         0.0812
     26 H5          0.5636   -1.8159    0.9490 H         1 <0>         0.0621
     27 H6          1.4973   -0.3031    1.0393 H         1 <0>         0.0571
     28 H7         -2.0546   -0.4861   -1.3389 H         1 <0>         0.0431
     29 H8         -1.5105   -1.9227   -0.4398 H         1 <0>         0.0527
     30 H9         -3.2584   -0.7654    0.7053 H         1 <0>         0.3904
     31 H10         0.7406   -1.7659   -1.5408 H         1 <0>         0.0938
     32 H11         1.9723    1.0341   -1.5063 H         1 <0>         0.1071
     33 H12         2.5350   -0.3364   -0.5156 H         1 <0>         0.1158
     34 H13         3.1013   -1.6198   -2.4884 H         1 <0>         0.1490
     35 H14         3.9294   -0.4753   -5.0954 H         1 <0>         0.1462
     36 H15         0.3170    0.1055   -7.2851 H         1 <0>         0.1659
     37 H16        -0.9636    0.0805   -5.1841 H         1 <0>         0.1580
     38 H17        -0.9003    0.0893   -2.7634 H         1 <0>         0.4192
     39 H18         3.4241    1.9401   -1.7966 H         1 <0>         0.1263
     40 H19         4.8081    2.1679   -2.8924 H         1 <0>         0.1308
     41 H20         3.1919    1.8314   -3.5580 H         1 <0>         0.1212
     42 H21         5.1720   -1.1870   -1.4564 H         1 <0>         0.1275
     43 H22         5.8850    0.4427   -1.5201 H         1 <0>         0.1311
     44 H23         4.3899    0.1609   -0.5962 H         1 <0>         0.1245
     45 H24         4.6698   -0.0913   -3.5077 H         1 <0>         0.4264
@<TRIPOS>BOND
     1    1    2 1
     2    1   22 1
     3    1   23 1
     4    1   24 1
     5    2    3 1
     6    2    4 1
     7    2    6 1
     8    3   25 1
     9    3   26 1
    10    3   27 1
    11    4    5 1
    12    4   28 1
    13    4   29 1
    14    5   30 1
    15    6   15 1
    16    6    7 1
    17    6   31 1
    18    7    8 1
    19    7   32 1
    20    7   33 1
    21    8    9 1
    22    8   19 1
    23    8   34 1
    24    9   14 ar
    25    9   10 ar
    26   10   11 ar
    27   10   35 1
    28   11   12 ar
    29   11   16 1
    30   12   13 ar
    31   12   36 1
    32   13   14 ar
    33   13   37 1
    34   14   15 1
    35   15   38 1
    36   16   17 2
    37   16   18 1
    38   19   20 1
    39   19   21 1
    40   19   45 1
    41   20   39 1
    42   20   40 1
    43   20   41 1
    44   21   42 1
    45   21   43 1
    46   21   44 1
@<TRIPOS>MOLECULE
CHEMBL467887__2
   45    46     0     0     0
SMALL
USER_CHARGES

@<TRIPOS>ATOM
      1 C1         -0.0765    1.7227   -0.2448 C.3       1 <0>        -0.1429
      2 C2         -0.0647    0.1964   -0.1391 C.3       1 <0>        -0.0677
      3 C3          0.6372   -0.2198    1.1552 C.3       1 <0>        -0.1437
      4 C4         -1.5030   -0.3254   -0.1297 C.3       1 <0>         0.0840
      5 O1         -2.2018    0.2242    0.9891 O.3       1 <0>        -0.5644
      6 C5          0.6835   -0.3920   -1.3369 C.3       1 <0>         0.1647
      7 C6          2.1388    0.0938   -1.3303 C.3       1 <0>        -0.1659
      8 C7          2.8464   -0.4498   -2.5714 C.3       1 <0>         0.0935
      9 C8          2.6439   -1.9378   -2.6843 C.ar      1 <0>        -0.2164
     10 C9          3.5250   -2.6773   -3.4557 C.ar      1 <0>        -0.0142
     11 C10         3.3639   -4.0433   -3.5815 C.ar      1 <0>        -0.0898
     12 C11         2.3202   -4.6823   -2.9371 C.ar      1 <0>         0.0116
     13 C12         1.4384   -3.9531   -2.1652 C.ar      1 <0>        -0.1749
     14 C13         1.5991   -2.5777   -2.0362 C.ar      1 <0>         0.2968
     15 N1          0.6991   -1.8582   -1.2425 N.pl3     1 <0>        -0.7222
     16 N2          4.3103   -4.8252   -4.4084 N.pl3     1 <0>         0.0348
     17 O2          5.2229   -4.2681   -4.9727 O.2       1 <0>        -0.1644
     18 O3          4.1706   -6.0209   -4.5195 O.3       1 <0>        -0.1427
     19 N3          4.2836   -0.1611   -2.4765 N.4       1 <0>        -0.3858
     20 C14         4.4878    1.2921   -2.4095 C.3       1 <0>        -0.0520
     21 C15         4.8302   -0.7887   -1.2660 C.3       1 <0>        -0.0574
     22 H1          0.9481    2.0944   -0.2515 H         1 <0>         0.0572
     23 H2         -0.5766    2.0191   -1.1668 H         1 <0>         0.0621
     24 H3         -0.6095    2.1419    0.6086 H         1 <0>         0.0812
     25 H4          0.1042    0.1994    2.0086 H         1 <0>         0.0785
     26 H5          0.6456   -1.3071    1.2305 H         1 <0>         0.0559
     27 H6          1.6619    0.1519    1.1485 H         1 <0>         0.0550
     28 H7         -2.0030   -0.0289   -1.0517 H         1 <0>         0.0527
     29 H8         -1.4945   -1.4127   -0.0544 H         1 <0>         0.0431
     30 H9         -3.1222   -0.0642    1.0583 H         1 <0>         0.3904
     31 H10         0.1958   -0.0869   -2.2628 H         1 <0>         0.0939
     32 H11         2.1601    1.1835   -1.3456 H         1 <0>         0.1163
     33 H12         2.6414   -0.2706   -0.4344 H         1 <0>         0.1063
     34 H13         2.4421    0.0372   -3.4589 H         1 <0>         0.1491
     35 H14         4.3416   -2.1835   -3.9614 H         1 <0>         0.1464
     36 H15         2.1952   -5.7503   -3.0379 H         1 <0>         0.1659
     37 H16         0.6228   -4.4508   -1.6617 H         1 <0>         0.1579
     38 H17         0.0954   -2.3197   -0.6397 H         1 <0>         0.4191
     39 H18         4.0671    1.6756   -1.4799 H         1 <0>         0.1246
     40 H19         5.5551    1.5110   -2.4428 H         1 <0>         0.1311
     41 H20         3.9927    1.7680   -3.2559 H         1 <0>         0.1273
     42 H21         4.6787   -1.8670   -1.3157 H         1 <0>         0.1209
     43 H22         5.8966   -0.5745   -1.1955 H         1 <0>         0.1312
     44 H23         4.3209   -0.3903   -0.3885 H         1 <0>         0.1257
     45 H24         4.7551   -0.5299   -3.2887 H         1 <0>         0.4271
@<TRIPOS>BOND
     1    1    2 1
     2    1   22 1
     3    1   23 1
     4    1   24 1
     5    2    3 1
     6    2    4 1
     7    2    6 1
     8    3   25 1
     9    3   26 1
    10    3   27 1
    11    4    5 1
    12    4   28 1
    13    4   29 1
    14    5   30 1
    15    6   15 1
    16    6    7 1
    17    6   31 1
    18    7    8 1
    19    7   32 1
    20    7   33 1
    21    8    9 1
    22    8   19 1
    23    8   34 1
    24    9   14 ar
    25    9   10 ar
    26   10   11 ar
    27   10   35 1
    28   11   12 ar
    29   11   16 1
    30   12   13 ar
    31   12   36 1
    32   13   14 ar
    33   13   37 1
    34   14   15 1
    35   15   38 1
    36   16   17 2
    37   16   18 1
    38   19   20 1
    39   19   21 1
    40   19   45 1
    41   20   39 1
    42   20   40 1
    43   20   41 1
    44   21   42 1
    45   21   43 1
    46   21   44 1
@<TRIPOS>MOLECULE
CHEMBL467887__3
   45    46     0     0     0
SMALL
USER_CHARGES

@<TRIPOS>ATOM
      1 C1          0.2667    0.8752    1.0545 C.3       1 <0>        -0.1480
      2 C2         -0.3530   -0.5221    1.1206 C.3       1 <0>        -0.0816
      3 C3          0.2393   -1.2872    2.3058 C.3       1 <0>        -0.1644
      4 C4         -1.8678   -0.4003    1.2979 C.3       1 <0>         0.0865
      5 O1         -2.1506    0.3039    2.5088 O.3       1 <0>        -0.5679
      6 C5         -0.0503   -1.2762   -0.1758 C.3       1 <0>         0.1618
      7 C6          1.3730   -0.9497   -0.6466 C.3       1 <0>        -0.1573
      8 C7          2.3544   -1.2922    0.4741 C.3       1 <0>         0.0740
      9 C8          2.1238   -2.6969    0.9657 C.ar      1 <0>        -0.2104
     10 C9          3.1420   -3.3447    1.6453 C.ar      1 <0>        -0.0170
     11 C10         2.9603   -4.6324    2.1106 C.ar      1 <0>        -0.0900
     12 C11         1.7582   -5.2837    1.9015 C.ar      1 <0>         0.0123
     13 C12         0.7384   -4.6457    1.2248 C.ar      1 <0>        -0.1797
     14 C13         0.9197   -3.3498    0.7536 C.ar      1 <0>         0.3046
     15 N1         -0.1235   -2.7242    0.0621 N.pl3     1 <0>        -0.7223
     16 N2          4.0547   -5.3171    2.8345 N.pl3     1 <0>         0.0354
     17 O2          5.1062   -4.7493    3.0178 O.2       1 <0>        -0.1647
     18 O3          3.8972   -6.4442    3.2424 O.3       1 <0>        -0.1435
     19 N3          3.7288   -1.1741   -0.0310 N.4       1 <0>        -0.3877
     20 C14         3.9115   -2.0831   -1.1704 C.3       1 <0>        -0.0573
     21 C15         3.9745    0.2083   -0.4631 C.3       1 <0>        -0.0536
     22 H1          1.3459    0.7884    0.9282 H         1 <0>         0.0479
     23 H2         -0.1553    1.4202    0.2101 H         1 <0>         0.0673
     24 H3          0.0510    1.4124    1.9781 H         1 <0>         0.0812
     25 H4         -0.0768   -0.8165    3.2367 H         1 <0>         0.0776
     26 H5         -0.1106   -2.3193    2.2835 H         1 <0>         0.0655
     27 H6          1.3273   -1.2709    2.2416 H         1 <0>         0.0607
     28 H7         -2.2898    0.1447    0.4536 H         1 <0>         0.0512
     29 H8         -2.3093   -1.3958    1.3450 H         1 <0>         0.0476
     30 H9         -3.0943    0.4184    2.6860 H         1 <0>         0.3899
     31 H10        -0.7687   -0.9916   -0.9446 H         1 <0>         0.1207
     32 H11         1.6092   -1.5399   -1.5320 H         1 <0>         0.1033
     33 H12         1.4449    0.1119   -0.8832 H         1 <0>         0.1162
     34 H13         2.2162   -0.5943    1.2999 H         1 <0>         0.1632
     35 H14         4.0826   -2.8407    1.8118 H         1 <0>         0.1461
     36 H15         1.6179   -6.2903    2.2668 H         1 <0>         0.1655
     37 H16        -0.2009   -5.1531    1.0610 H         1 <0>         0.1584
     38 H17        -0.8829   -3.2379   -0.2544 H         1 <0>         0.4215
     39 H18         3.3018   -1.7434   -2.0077 H         1 <0>         0.1259
     40 H19         4.9610   -2.0905   -1.4647 H         1 <0>         0.1301
     41 H20         3.6072   -3.0899   -0.8844 H         1 <0>         0.1210
     42 H21         3.8214    0.8845    0.3779 H         1 <0>         0.1264
     43 H22         4.9999    0.3002   -0.8212 H         1 <0>         0.1318
     44 H23         3.2846    0.4658   -1.2668 H         1 <0>         0.1254
     45 H24         4.3785   -1.4180    0.7014 H         1 <0>         0.4265
@<TRIPOS>BOND
     1    1    2 1
     2    1   22 1
     3    1   23 1
     4    1   24 1
     5    2    3 1
     6    2    4 1
     7    2    6 1
     8    3   25 1
     9    3   26 1
    10    3   27 1
    11    4    5 1
    12    4   28 1
    13    4   29 1
    14    5   30 1
    15    6   15 1
    16    6    7 1
    17    6   31 1
    18    7    8 1
    19    7   32 1
    20    7   33 1
    21    8    9 1
    22    8   19 1
    23    8   34 1
    24    9   14 ar
    25    9   10 ar
    26   10   11 ar
    27   10   35 1
    28   11   12 ar
    29   11   16 1
    30   12   13 ar
    31   12   36 1
    32   13   14 ar
    33   13   37 1
    34   14   15 1
    35   15   38 1
    36   16   17 2
    37   16   18 1
    38   19   20 1
    39   19   21 1
    40   19   45 1
    41   20   39 1
    42   20   40 1
    43   20   41 1
    44   21   42 1
    45   21   43 1
    46   21   44 1
@<TRIPOS>MOLECULE
CHEMBL282650
   32    34     0     0     0
SMALL
USER_CHARGES

@<TRIPOS>ATOM
      1 C1         -0.0187    1.5258    0.0104 C.3       1 <0>        -0.1709
      2 C2          0.0021   -0.0041    0.0020 C.3       1 <0>         0.1483
      3 C3          0.7212   -0.4928   -1.2301 C.ar      1 <0>        -0.1396
      4 C4          0.0402   -0.7167   -2.4049 C.ar      1 <0>        -0.0639
      5 C5          0.7308   -1.1666   -3.5298 C.ar      1 <0>        -0.0271
      6 C6          2.1053   -1.3876   -3.4610 C.ar      1 <0>        -0.0762
      7 C7          2.7829   -1.1628   -2.2801 C.ar      1 <0>        -0.1201
      8 C8          2.0935   -0.7157   -1.1628 C.ar      1 <0>         0.1252
      9 N1          2.7557   -0.4827    0.0486 N.pl3     1 <0>        -0.6071
     10 C9          2.0338   -0.3552    1.1812 C.2       1 <0>         0.5021
     11 O1          0.6935   -0.4804    1.1602 O.3       1 <0>        -0.2761
     12 S1          2.8309   -0.0314    2.6614 S.2       1 <0>        -0.4927
     13 C10         0.0023   -1.4106   -4.7998 C.2       1 <0>        -0.1044
     14 C11         0.6702   -1.8625   -5.9264 C.2       1 <0>        -0.0659
     15 C12        -0.1089   -2.0549   -7.0524 C.2       1 <0>        -0.1551
     16 S2         -1.7305   -1.5938   -6.4752 S.3       1 <0>         0.2954
     17 C13        -1.3541   -1.1990   -4.8868 C.2       1 <0>        -0.2254
     18 C14         0.2867   -2.5085   -8.3517 C.1       1 <0>         0.2888
     19 N2          0.6005   -2.8684   -9.3825 N.1       1 <0>        -0.3885
     20 C15        -1.4324   -0.5362    0.0065 C.3       1 <0>        -0.1419
     21 H1          1.0039    1.9031    0.0027 H         1 <0>         0.0615
     22 H2         -0.5459    1.8868   -0.8726 H         1 <0>         0.0866
     23 H3         -0.5289    1.8773    0.9072 H         1 <0>         0.0842
     24 H4         -1.0248   -0.5450   -2.4553 H         1 <0>         0.1407
     25 H5          2.6403   -1.7354   -4.3323 H         1 <0>         0.1401
     26 H6          3.8477   -1.3347   -2.2260 H         1 <0>         0.1418
     27 H7          1.7333   -2.0525   -5.9252 H         1 <0>         0.1540
     28 H8         -2.0234   -0.8557   -4.1117 H         1 <0>         0.1968
     29 H9         -1.9563   -0.1760   -0.8789 H         1 <0>         0.0884
     30 H10        -1.4157   -1.6260    0.0005 H         1 <0>         0.0751
     31 H11        -1.9472   -0.1856    0.9010 H         1 <0>         0.0828
     32 H12         3.7229   -0.4139    0.0733 H         1 <0>         0.4429
@<TRIPOS>BOND
     1    1    2 1
     2    1   21 1
     3    1   22 1
     4    1   23 1
     5    2   11 1
     6    2    3 1
     7    2   20 1
     8    3    8 ar
     9    3    4 ar
    10    4    5 ar
    11    4   24 1
    12    5    6 ar
    13    5   13 1
    14    6    7 ar
    15    6   25 1
    16    7    8 ar
    17    7   26 1
    18    8    9 1
    19    9   10 1
    20    9   32 1
    21   10   11 1
    22   10   12 2
    23   13   17 2
    24   13   14 1
    25   14   15 2
    26   14   27 1
    27   15   16 1
    28   15   18 1
    29   16   17 1
    30   17   28 1
    31   18   19 3
    32   20   29 1
    33   20   30 1
    34   20   31 1
@<TRIPOS>MOLECULE
CHEMBL453624
   30    31     0     0     0
SMALL
USER_CHARGES

@<TRIPOS>ATOM
      1 C1         -0.0168    1.3882    0.0097 C.ar      1 <0>        -0.1084
      2 C2          1.1647    2.0939    0.0022 C.ar      1 <0>        -0.0444
      3 C3          2.3849    1.4113   -0.0131 C.ar      1 <0>         0.0145
      4 C4          2.4005    0.0128   -0.0207 C.ar      1 <0>        -0.1186
      5 C5          1.2159   -0.6869   -0.0131 C.ar      1 <0>        -0.0551
      6 C6          0.0021   -0.0041    0.0020 C.ar      1 <0>        -0.0619
      7 S1         -1.5128   -0.9039    0.0122 S.3       1 <0>        -0.0774
      8 C7         -2.7889    0.3853    0.0317 C.3       1 <0>        -0.1050
      9 C8         -4.1728   -0.2671    0.0419 C.3       1 <0>        -0.0986
     10 C9         -4.7177   -0.5778   -1.3622 C.3       1 <0>        -0.1361
     11 C10        -6.0899   -0.1127   -0.8467 C.3       1 <0>        -0.1436
     12 C11        -5.3272    0.7392    0.1815 C.3       1 <0>        -0.1290
     13 C12         3.7134   -0.7269   -0.0377 C.3       1 <0>         0.5054
     14 F1          3.4722   -2.1049   -0.0426 F         1 <0>        -0.1684
     15 F2          4.4320   -0.3751   -1.1853 F         1 <0>        -0.1692
     16 F3          4.4547   -0.3873    1.0992 F         1 <0>        -0.1693
     17 C13         3.6161    2.1426   -0.0214 C.1       1 <0>         0.2306
     18 N1          4.5928    2.7227   -0.0280 N.1       1 <0>        -0.3749
     19 H1         -0.9596    1.9148    0.0260 H         1 <0>         0.1445
     20 H2          1.1494    3.1738    0.0077 H         1 <0>         0.1510
     21 H3          1.2272   -1.7669   -0.0190 H         1 <0>         0.1561
     22 H4         -2.6705    1.0002    0.9239 H         1 <0>         0.0947
     23 H5         -2.6881    1.0097   -0.8560 H         1 <0>         0.0940
     24 H6         -4.2397   -1.1070    0.7334 H         1 <0>         0.1019
     25 H7         -4.3047    0.0618   -2.1422 H         1 <0>         0.0840
     26 H8         -4.6838   -1.6364   -1.6193 H         1 <0>         0.0723
     27 H9         -6.6517    0.4767   -1.5713 H         1 <0>         0.0713
     28 H10        -6.6817   -0.9112   -0.3991 H         1 <0>         0.0828
     29 H11        -5.7852    0.7437    1.1706 H         1 <0>         0.0727
     30 H12        -5.0807    1.7388   -0.1765 H         1 <0>         0.0841
@<TRIPOS>BOND
     1    1    6 ar
     2    1    2 ar
     3    1   19 1
     4    2    3 ar
     5    2   20 1
     6    3    4 ar
     7    3   17 1
     8    4    5 ar
     9    4   13 1
    10    5    6 ar
    11    5   21 1
    12    6    7 1
    13    7    8 1
    14    8    9 1
    15    8   22 1
    16    8   23 1
    17    9   12 1
    18    9   10 1
    19    9   24 1
    20   10   11 1
    21   10   25 1
    22   10   26 1
    23   11   12 1
    24   11   27 1
    25   11   28 1
    26   12   29 1
    27   12   30 1
    28   13   14 1
    29   13   15 1
    30   13   16 1
    31   17   18 3
@<TRIPOS>MOLECULE
CHEMBL453623
   27    28     0     0     0
SMALL
USER_CHARGES

@<TRIPOS>ATOM
      1 C1         -0.0168    1.3882    0.0097 C.ar      1 <0>        -0.1084
      2 C2          1.1647    2.0939    0.0022 C.ar      1 <0>        -0.0443
      3 C3          2.3849    1.4113   -0.0131 C.ar      1 <0>         0.0151
      4 C4          2.4005    0.0128   -0.0207 C.ar      1 <0>        -0.1184
      5 C5          1.2159   -0.6869   -0.0131 C.ar      1 <0>        -0.0545
      6 C6          0.0021   -0.0041    0.0020 C.ar      1 <0>        -0.0632
      7 S1         -1.5128   -0.9039    0.0122 S.3       1 <0>        -0.0691
      8 C7         -2.7889    0.3853    0.0317 C.3       1 <0>        -0.0844
      9 C8         -4.1728   -0.2671    0.0419 C.3       1 <0>        -0.1484
     10 C9         -5.0808   -0.0164   -1.1637 C.3       1 <0>        -0.1718
     11 C10        -5.3870    0.6539    0.1772 C.3       1 <0>        -0.1655
     12 C11         3.7134   -0.7269   -0.0377 C.3       1 <0>         0.5054
     13 F1          3.4722   -2.1049   -0.0426 F         1 <0>        -0.1683
     14 F2          4.4320   -0.3751   -1.1853 F         1 <0>        -0.1691
     15 F3          4.4547   -0.3873    1.0992 F         1 <0>        -0.1692
     16 C12         3.6161    2.1426   -0.0214 C.1       1 <0>         0.2304
     17 N1          4.5928    2.7227   -0.0280 N.1       1 <0>        -0.3744
     18 H1         -0.9596    1.9148    0.0260 H         1 <0>         0.1443
     19 H2          1.1494    3.1738    0.0077 H         1 <0>         0.1513
     20 H3          1.2272   -1.7669   -0.0190 H         1 <0>         0.1565
     21 H4         -2.6705    1.0002    0.9239 H         1 <0>         0.0972
     22 H5         -2.6881    1.0097   -0.8560 H         1 <0>         0.0943
     23 H6         -4.2277   -1.2456    0.5189 H         1 <0>         0.1162
     24 H7         -4.6923    0.6133   -1.9641 H         1 <0>         0.0983
     25 H8         -5.7334   -0.8302   -1.4801 H         1 <0>         0.1003
     26 H9         -6.2409    0.2812    0.7428 H         1 <0>         0.1016
     27 H10        -5.1999    1.7246    0.2589 H         1 <0>         0.0982
@<TRIPOS>BOND
     1    1    6 ar
     2    1    2 ar
     3    1   18 1
     4    2    3 ar
     5    2   19 1
     6    3    4 ar
     7    3   16 1
     8    4    5 ar
     9    4   12 1
    10    5    6 ar
    11    5   20 1
    12    6    7 1
    13    7    8 1
    14    8    9 1
    15    8   21 1
    16    8   22 1
    17    9   11 1
    18    9   10 1
    19    9   23 1
    20   10   11 1
    21   10   24 1
    22   10   25 1
    23   11   26 1
    24   11   27 1
    25   12   13 1
    26   12   14 1
    27   12   15 1
    28   16   17 3
@<TRIPOS>MOLECULE
CHEMBL302870
   53    56     0     0     0
SMALL
USER_CHARGES

@<TRIPOS>ATOM
      1 C1         -0.0187    1.5258    0.0104 C.3       1 <0>        -0.1372
      2 C2          0.0021   -0.0041    0.0020 C.3       1 <0>        -0.0475
      3 C3         -1.4346   -0.4935    0.0427 C.3       1 <0>        -0.1101
      4 C4         -2.0074   -0.4427    1.4588 C.3       1 <0>        -0.1643
      5 C5         -1.1153   -1.2953    2.3399 C.2       1 <0>         0.3885
      6 O1         -1.5711   -2.1378    3.0845 O.2       1 <0>        -0.4558
      7 C6          0.3276   -1.0486    2.2446 C.2       1 <0>        -0.2365
      8 C7          0.8362   -0.4627    1.1582 C.2       1 <0>        -0.0210
      9 C8          2.3328   -0.2126    1.1165 C.3       1 <0>        -0.0966
     10 C9          2.8737   -0.7052   -0.2273 C.3       1 <0>        -0.1172
     11 C10         2.1021   -0.0261   -1.3640 C.3       1 <0>        -0.0924
     12 C11         0.6393   -0.4608   -1.3167 C.3       1 <0>         0.1512
     13 C12        -0.1213    0.1921   -2.4767 C.3       1 <0>         0.0917
     14 H1         -1.1746   -0.0833   -2.4238 H         1 <0>         0.0706
     15 C13         0.4706   -0.3014   -3.7934 C.3       1 <0>        -0.1478
     16 C14         1.9344    0.1302   -3.9182 C.3       1 <0>        -0.0250
     17 C15         2.7473   -0.3576   -2.6884 C.3       1 <0>        -0.0709
     18 C16         2.8726   -1.8747   -2.9216 C.3       1 <0>        -0.1348
     19 C17         3.1176   -1.9862   -4.4442 C.3       1 <0>        -0.1524
     20 C18         2.5442   -0.6973   -5.0811 C.3       1 <0>         0.1270
     21 C19         1.4569   -1.0598   -6.0946 C.3       1 <0>        -0.1807
     22 O2          3.5836    0.0464   -5.7203 O.3       1 <0>        -0.5535
     23 C20         2.0652    1.6361   -4.1552 C.3       1 <0>        -0.1377
     24 O3          0.0068    1.6130   -2.3939 O.3       1 <0>        -0.5391
     25 F1          0.5726   -1.8548   -1.4145 F         1 <0>        -0.1891
     26 H2          0.9534    1.9041   -0.3060 H         1 <0>         0.0713
     27 H3         -0.7879    1.8825   -0.6745 H         1 <0>         0.0905
     28 H4         -0.2363    1.8806    1.0178 H         1 <0>         0.0511
     29 H5         -2.0426    0.1334   -0.6097 H         1 <0>         0.0846
     30 H6         -1.4707   -1.5211   -0.3189 H         1 <0>         0.0731
     31 H7         -2.0112    0.5857    1.8202 H         1 <0>         0.1016
     32 H8         -3.0219   -0.8414    1.4626 H         1 <0>         0.0940
     33 H9          0.9817   -1.3538    3.0480 H         1 <0>         0.1358
     34 H10         2.5283    0.8547    1.2204 H         1 <0>         0.0872
     35 H11         2.8173   -0.7565    1.9273 H         1 <0>         0.0812
     36 H12         3.9320   -0.4566   -0.3067 H         1 <0>         0.0762
     37 H13         2.7471   -1.7856   -0.2964 H         1 <0>         0.0739
     38 H14         2.1389    1.0532   -1.2165 H         1 <0>         0.1015
     39 H15         0.4115   -1.3892   -3.8297 H         1 <0>         0.0824
     40 H16        -0.0998    0.1152   -4.6235 H         1 <0>         0.0752
     41 H17         3.7461    0.0777   -2.7180 H         1 <0>         0.0781
     42 H18         3.7182   -2.2799   -2.3660 H         1 <0>         0.0658
     43 H19         1.9497   -2.3834   -2.6431 H         1 <0>         0.0887
     44 H20         4.1859   -2.0655   -4.6456 H         1 <0>         0.0706
     45 H21         2.5962   -2.8560   -4.8437 H         1 <0>         0.0669
     46 H22         1.0167   -0.1475   -6.4971 H         1 <0>         0.0628
     47 H23         1.8957   -1.6402   -6.9062 H         1 <0>         0.0560
     48 H24         0.6838   -1.6500   -5.6026 H         1 <0>         0.0710
     49 H25         4.0043   -0.4185   -6.4565 H         1 <0>         0.3731
     50 H26         1.6308    2.1754   -3.3134 H         1 <0>         0.0829
     51 H27         3.1188    1.8988   -4.2504 H         1 <0>         0.0587
     52 H28         1.5391    1.9069   -5.0706 H         1 <0>         0.0481
     53 H29        -0.4513    2.0909   -3.0988 H         1 <0>         0.3786
@<TRIPOS>BOND
     1    1    2 1
     2    1   26 1
     3    1   27 1
     4    1   28 1
     5    2    8 1
     6    2   12 1
     7    2    3 1
     8    3    4 1
     9    3   29 1
    10    3   30 1
    11    4    5 1
    12    4   31 1
    13    4   32 1
    14    5    6 2
    15    5    7 1
    16    7    8 2
    17    7   33 1
    18    8    9 1
    19    9   10 1
    20    9   34 1
    21    9   35 1
    22   10   11 1
    23   10   36 1
    24   10   37 1
    25   11   17 1
    26   11   12 1
    27   11   38 1
    28   12   13 1
    29   12   25 1
    30   13   14 1
    31   13   15 1
    32   13   24 1
    33   15   16 1
    34   15   39 1
    35   15   40 1
    36   16   20 1
    37   16   17 1
    38   16   23 1
    39   17   18 1
    40   17   41 1
    41   18   19 1
    42   18   42 1
    43   18   43 1
    44   19   20 1
    45   19   44 1
    46   19   45 1
    47   20   21 1
    48   20   22 1
    49   21   46 1
    50   21   47 1
    51   21   48 1
    52   22   49 1
    53   23   50 1
    54   23   51 1
    55   23   52 1
    56   24   53 1
@<TRIPOS>MOLECULE
CHEMBL302870__1
   53    56     0     0     0
SMALL
USER_CHARGES

@<TRIPOS>ATOM
      1 C1         -0.3407    1.5570   -0.1780 C.3       1 <0>        -0.1367
      2 C2         -0.3534    0.0272   -0.1923 C.3       1 <0>        -0.0461
      3 C3         -1.7986   -0.4291   -0.2870 C.3       1 <0>        -0.1091
      4 C4         -2.5011   -0.3568    1.0685 C.3       1 <0>        -0.1643
      5 C5         -1.7180   -1.2265    2.0323 C.2       1 <0>         0.3885
      6 O1         -2.2641   -2.0501    2.7362 O.2       1 <0>        -0.4563
      7 C6         -0.2660   -1.0214    2.0696 C.2       1 <0>        -0.2368
      8 C7          0.3585   -0.4532    1.0346 C.2       1 <0>        -0.0211
      9 C8          1.8590   -0.2479    1.1349 C.3       1 <0>        -0.0966
     10 C9          2.5102   -0.7386   -0.1603 C.3       1 <0>        -0.1178
     11 C10         1.8664   -0.0207   -1.3497 C.3       1 <0>        -0.0969
     12 C11         0.3920   -0.4391   -1.4488 C.3       1 <0>         0.1514
     13 C12        -0.2947    0.1420   -2.6815 C.3       1 <0>         0.0913
     14 H1         -1.3003   -0.2720   -2.7562 H         1 <0>         0.0681
     15 C13         0.4776   -0.1823   -3.9699 C.3       1 <0>        -0.1372
     16 C14         1.8811    0.3672   -3.8004 C.3       1 <0>        -0.0461
     17 C15         2.5512   -0.4434   -2.6365 C.3       1 <0>        -0.0875
     18 C16         4.0243   -0.0412   -2.7702 C.3       1 <0>        -0.1095
     19 C17         4.2507   -0.0541   -4.3066 C.3       1 <0>        -0.1492
     20 C18         2.8393    0.1576   -4.9683 C.3       1 <0>         0.1361
     21 C19         2.4464   -1.0922   -5.7585 C.3       1 <0>        -0.1771
     22 O2          2.8387    1.3042   -5.8211 O.3       1 <0>        -0.5513
     23 C20         1.8163    1.8535   -3.4431 C.3       1 <0>        -0.1345
     24 O3         -0.3850    1.5610   -2.5389 O.3       1 <0>        -0.5388
     25 F1          0.3328   -1.8349   -1.5221 F         1 <0>        -0.1967
     26 H2          0.6336    1.9154   -0.5102 H         1 <0>         0.0693
     27 H3         -1.1139    1.9331   -0.8480 H         1 <0>         0.0947
     28 H4         -0.5328    1.9125    0.8343 H         1 <0>         0.0497
     29 H5         -2.3272    0.2078   -0.9962 H         1 <0>         0.0862
     30 H6         -1.8243   -1.4578   -0.6467 H         1 <0>         0.0714
     31 H7         -2.5131    0.6732    1.4250 H         1 <0>         0.1017
     32 H8         -3.5211   -0.7301    0.9776 H         1 <0>         0.0936
     33 H9          0.3021   -1.3433    2.9298 H         1 <0>         0.1355
     34 H10         2.0744    0.8116    1.2737 H         1 <0>         0.0872
     35 H11         2.2501   -0.8162    1.9788 H         1 <0>         0.0813
     36 H12         3.5777   -0.5196   -0.1369 H         1 <0>         0.0783
     37 H13         2.3600   -1.8137   -0.2589 H         1 <0>         0.0731
     38 H14         1.9485    1.0587   -1.2216 H         1 <0>         0.1116
     39 H15         0.5167   -1.2615   -4.1177 H         1 <0>         0.0779
     40 H16        -0.0069    0.2930   -4.8228 H         1 <0>         0.0766
     41 H17         2.4217   -1.5131   -2.8010 H         1 <0>         0.0811
     42 H18         4.1899    0.9569   -2.3644 H         1 <0>         0.0720
     43 H19         4.6691   -0.7701   -2.2792 H         1 <0>         0.0683
     44 H20         4.9215    0.7559   -4.5928 H         1 <0>         0.0717
     45 H21         4.6678   -1.0127   -4.6152 H         1 <0>         0.0688
     46 H22         1.4341   -0.9744   -6.1451 H         1 <0>         0.0641
     47 H23         3.1389   -1.2296   -6.5890 H         1 <0>         0.0573
     48 H24         2.4863   -1.9632   -5.1043 H         1 <0>         0.0666
     49 H25         3.4303    1.2286   -6.5822 H         1 <0>         0.3736
     50 H26         1.4341    1.9670   -2.4286 H         1 <0>         0.0905
     51 H27         2.8148    2.2861   -3.5057 H         1 <0>         0.0437
     52 H28         1.1538    2.3663   -4.1404 H         1 <0>         0.0529
     53 H29        -0.8112    2.0049   -3.2848 H         1 <0>         0.3754
@<TRIPOS>BOND
     1    1    2 1
     2    1   26 1
     3    1   27 1
     4    1   28 1
     5    2    8 1
     6    2   12 1
     7    2    3 1
     8    3    4 1
     9    3   29 1
    10    3   30 1
    11    4    5 1
    12    4   31 1
    13    4   32 1
    14    5    6 2
    15    5    7 1
    16    7    8 2
    17    7   33 1
    18    8    9 1
    19    9   10 1
    20    9   34 1
    21    9   35 1
    22   10   11 1
    23   10   36 1
    24   10   37 1
    25   11   17 1
    26   11   12 1
    27   11   38 1
    28   12   13 1
    29   12   25 1
    30   13   14 1
    31   13   15 1
    32   13   24 1
    33   15   16 1
    34   15   39 1
    35   15   40 1
    36   16   20 1
    37   16   17 1
    38   16   23 1
    39   17   18 1
    40   17   41 1
    41   18   19 1
    42   18   42 1
    43   18   43 1
    44   19   20 1
    45   19   44 1
    46   19   45 1
    47   20   21 1
    48   20   22 1
    49   21   46 1
    50   21   47 1
    51   21   48 1
    52   22   49 1
    53   23   50 1
    54   23   51 1
    55   23   52 1
    56   24   53 1
@<TRIPOS>MOLECULE
CHEMBL302870__2
   53    56     0     0     0
SMALL
USER_CHARGES

@<TRIPOS>ATOM
      1 C1         -0.0186    1.5212    0.0104 C.3       1 <0>        -0.1507
      2 C2          0.0021   -0.0041    0.0020 C.3       1 <0>        -0.0258
      3 C3         -1.4528   -0.4688    0.0276 C.3       1 <0>        -0.1084
      4 C4         -2.1112   -0.2822    1.3909 C.3       1 <0>        -0.1678
      5 C5         -1.3018   -1.0270    2.4288 C.2       1 <0>         0.3873
      6 O1         -1.8360   -1.6793    3.3045 O.2       1 <0>        -0.4597
      7 C6          0.1551   -0.9271    2.3305 C.2       1 <0>        -0.2316
      8 C7          0.7393   -0.4442    1.2387 C.2       1 <0>        -0.0269
      9 C8          2.2539   -0.3363    1.2582 C.3       1 <0>        -0.1011
     10 C9          2.7752   -1.1138    0.0469 C.3       1 <0>        -0.1157
     11 C10         2.2036   -0.4899   -1.2255 C.3       1 <0>        -0.0985
     12 C11         0.6839   -0.5567   -1.2408 C.3       1 <0>         0.1650
     13 C12         0.1746    0.0085   -2.5588 C.3       1 <0>         0.0966
     14 H1          0.4495   -0.7263   -3.3486 H         1 <0>         0.0615
     15 C13         0.7496    1.3540   -2.9414 C.3       1 <0>        -0.1400
     16 C14         2.2272    1.5408   -2.7293 C.3       1 <0>        -0.0346
     17 C15         2.7491    0.9174   -1.4235 C.3       1 <0>        -0.0729
     18 C16         4.2771    0.7962   -1.6814 C.3       1 <0>        -0.1223
     19 C17         4.4024    0.4910   -3.1863 C.3       1 <0>        -0.1520
     20 C18         3.1333    1.0560   -3.8570 C.3       1 <0>         0.1406
     21 C19         2.4909   -0.0171   -4.7319 C.3       1 <0>        -0.1799
     22 O2          3.5022    2.1737   -4.6843 O.3       1 <0>        -0.5582
     23 C20         2.4575    3.0689   -2.6073 C.3       1 <0>        -0.1317
     24 O3         -1.2559    0.0645   -2.5947 O.3       1 <0>        -0.5543
     25 F1          0.3664   -1.9516   -1.2684 F         1 <0>        -0.2149
     26 H2          1.0040    1.8985    0.0027 H         1 <0>         0.0654
     27 H3         -0.5458    1.8823   -0.8727 H         1 <0>         0.0766
     28 H4         -0.5288    1.8728    0.9072 H         1 <0>         0.0658
     29 H5         -2.0234    0.1293   -0.6860 H         1 <0>         0.1009
     30 H6         -1.4959   -1.5164   -0.2566 H         1 <0>         0.0776
     31 H7         -2.1621    0.7768    1.6466 H         1 <0>         0.0993
     32 H8         -3.1282   -0.6860    1.3625 H         1 <0>         0.0934
     33 H9          0.7687   -1.2524    3.1627 H         1 <0>         0.1342
     34 H10         2.5582    0.7040    1.1961 H         1 <0>         0.0884
     35 H11         2.6410   -0.7824    2.1742 H         1 <0>         0.0819
     36 H12         3.8619   -1.0844    0.0316 H         1 <0>         0.0838
     37 H13         2.4476   -2.1539    0.1204 H         1 <0>         0.0749
     38 H14         2.5635   -1.1087   -2.0716 H         1 <0>         0.0852
     39 H15         0.5262    1.5380   -4.0082 H         1 <0>         0.0725
     40 H16         0.2127    2.1577   -2.4226 H         1 <0>         0.0847
     41 H17         2.5518    1.5661   -0.5613 H         1 <0>         0.0973
     42 H18         4.7849    1.7315   -1.4352 H         1 <0>         0.0718
     43 H19         4.7088   -0.0161   -1.0941 H         1 <0>         0.0743
     44 H20         5.2865    0.9831   -3.5966 H         1 <0>         0.0747
     45 H21         4.4670   -0.5839   -3.3531 H         1 <0>         0.0709
     46 H22         1.5846    0.3807   -5.1884 H         1 <0>         0.0655
     47 H23         3.1902   -0.3157   -5.5129 H         1 <0>         0.0627
     48 H24         2.2393   -0.8828   -4.1192 H         1 <0>         0.0674
     49 H25         4.0797    1.9416   -5.4244 H         1 <0>         0.3732
     50 H26         1.8981    3.4538   -1.7546 H         1 <0>         0.0488
     51 H27         3.5199    3.2659   -2.4638 H         1 <0>         0.0601
     52 H28         2.1164    3.5616   -3.5179 H         1 <0>         0.0641
     53 H29        -1.6150    0.4193   -3.4194 H         1 <0>         0.3805
@<TRIPOS>BOND
     1    1    2 1
     2    1   26 1
     3    1   27 1
     4    1   28 1
     5    2    8 1
     6    2   12 1
     7    2    3 1
     8    3    4 1
     9    3   29 1
    10    3   30 1
    11    4    5 1
    12    4   31 1
    13    4   32 1
    14    5    6 2
    15    5    7 1
    16    7    8 2
    17    7   33 1
    18    8    9 1
    19    9   10 1
    20    9   34 1
    21    9   35 1
    22   10   11 1
    23   10   36 1
    24   10   37 1
    25   11   17 1
    26   11   12 1
    27   11   38 1
    28   12   13 1
    29   12   25 1
    30   13   14 1
    31   13   15 1
    32   13   24 1
    33   15   16 1
    34   15   39 1
    35   15   40 1
    36   16   20 1
    37   16   17 1
    38   16   23 1
    39   17   18 1
    40   17   41 1
    41   18   19 1
    42   18   42 1
    43   18   43 1
    44   19   20 1
    45   19   44 1
    46   19   45 1
    47   20   21 1
    48   20   22 1
    49   21   46 1
    50   21   47 1
    51   21   48 1
    52   22   49 1
    53   23   50 1
    54   23   51 1
    55   23   52 1
    56   24   53 1
@<TRIPOS>MOLECULE
CHEMBL302870__3
   53    56     0     0     0
SMALL
USER_CHARGES

@<TRIPOS>ATOM
      1 C1         -0.0006    1.4515    0.0812 C.3       1 <0>        -0.1450
      2 C2          0.0277   -0.0723    0.0472 C.3       1 <0>        -0.0414
      3 C3         -1.4249   -0.5515    0.0418 C.3       1 <0>        -0.1103
      4 C4         -2.0928   -0.3821    1.4009 C.3       1 <0>        -0.1668
      5 C5         -1.2850   -1.1482    2.4274 C.2       1 <0>         0.3868
      6 O1         -1.8286   -1.8000    3.2999 O.2       1 <0>        -0.4597
      7 C6          0.1731   -1.0729    2.3306 C.2       1 <0>        -0.2405
      8 C7          0.7721   -0.5579    1.2559 C.2       1 <0>        -0.0113
      9 C8          2.2819   -0.4506    1.3000 C.3       1 <0>        -0.0991
     10 C9          2.8842   -0.9582   -0.0137 C.3       1 <0>        -0.1129
     11 C10         1.8129   -1.5779   -0.8830 C.3       1 <0>        -0.0756
     12 C11         0.6904   -0.5879   -1.2226 C.3       1 <0>         0.1564
     13 C12         1.1395    0.4707   -2.2069 C.3       1 <0>         0.1045
     14 H1          0.2722    1.0906   -2.4845 H         1 <0>         0.0614
     15 C13         1.6338   -0.1864   -3.5158 C.3       1 <0>        -0.1378
     16 C14         2.7388   -1.1647   -3.2217 C.3       1 <0>        -0.0312
     17 C15         2.2928   -2.1921   -2.1642 C.3       1 <0>        -0.0860
     18 C16         3.4992   -3.1368   -2.1214 C.3       1 <0>        -0.1108
     19 C17         3.8548   -3.2869   -3.6288 C.3       1 <0>        -0.1508
     20 C18         3.1660   -2.1063   -4.3651 C.3       1 <0>         0.1293
     21 C19         1.9746   -2.5972   -5.1751 C.3       1 <0>        -0.1760
     22 O2          4.1072   -1.4354   -5.2052 O.3       1 <0>        -0.5532
     23 C20         4.0203   -0.4207   -2.8259 C.3       1 <0>        -0.1512
     24 O3          2.1482    1.3198   -1.6800 O.3       1 <0>        -0.5423
     25 F1         -0.2965   -1.3506   -1.8996 F         1 <0>        -0.2070
     26 H2          1.0199    1.8342    0.0699 H         1 <0>         0.0860
     27 H3         -0.5382    1.8244   -0.7905 H         1 <0>         0.0627
     28 H4         -0.5038    1.7853    0.9887 H         1 <0>         0.0612
     29 H5         -1.9738    0.0202   -0.7050 H         1 <0>         0.0835
     30 H6         -1.4400   -1.6072   -0.2294 H         1 <0>         0.0811
     31 H7         -2.1435    0.6709    1.6758 H         1 <0>         0.1014
     32 H8         -3.1088   -0.7876    1.3627 H         1 <0>         0.0950
     33 H9          0.7840   -1.4410    3.1465 H         1 <0>         0.1347
     34 H10         2.5758    0.5874    1.4529 H         1 <0>         0.0901
     35 H11         2.6657   -1.0572    2.1228 H         1 <0>         0.0760
     36 H12         3.3617   -0.1087   -0.4921 H         1 <0>         0.0982
     37 H13         3.6475   -1.7057    0.2221 H         1 <0>         0.0695
     38 H14         1.3387   -2.3914   -0.2838 H         1 <0>         0.0744
     39 H15         0.7806   -0.6769   -3.9890 H         1 <0>         0.0783
     40 H16         2.0005    0.5996   -4.1852 H         1 <0>         0.0754
     41 H17         1.4408   -2.7821   -2.5825 H         1 <0>         0.0766
     42 H18         4.3256   -2.7193   -1.5572 H         1 <0>         0.0755
     43 H19         3.2084   -4.1050   -1.7050 H         1 <0>         0.0641
     44 H20         4.9334   -3.2358   -3.7661 H         1 <0>         0.0743
     45 H21         3.4711   -4.2340   -4.0075 H         1 <0>         0.0667
     46 H22         1.4565   -1.7439   -5.6127 H         1 <0>         0.0648
     47 H23         2.3226   -3.2574   -5.9695 H         1 <0>         0.0587
     48 H24         1.2916   -3.1417   -4.5231 H         1 <0>         0.0688
     49 H25         4.4211   -1.9686   -5.9483 H         1 <0>         0.3718
     50 H26         3.8049    0.2622   -2.0041 H         1 <0>         0.0820
     51 H27         4.7760   -1.1405   -2.5116 H         1 <0>         0.0521
     52 H28         4.3907    0.1451   -3.6808 H         1 <0>         0.0625
     53 H29         2.4480    2.0031   -2.2952 H         1 <0>         0.3851
@<TRIPOS>BOND
     1    1    2 1
     2    1   26 1
     3    1   27 1
     4    1   28 1
     5    2    8 1
     6    2   12 1
     7    2    3 1
     8    3    4 1
     9    3   29 1
    10    3   30 1
    11    4    5 1
    12    4   31 1
    13    4   32 1
    14    5    6 2
    15    5    7 1
    16    7    8 2
    17    7   33 1
    18    8    9 1
    19    9   10 1
    20    9   34 1
    21    9   35 1
    22   10   11 1
    23   10   36 1
    24   10   37 1
    25   11   17 1
    26   11   12 1
    27   11   38 1
    28   12   13 1
    29   12   25 1
    30   13   14 1
    31   13   15 1
    32   13   24 1
    33   15   16 1
    34   15   39 1
    35   15   40 1
    36   16   20 1
    37   16   17 1
    38   16   23 1
    39   17   18 1
    40   17   41 1
    41   18   19 1
    42   18   42 1
    43   18   43 1
    44   19   20 1
    45   19   44 1
    46   19   45 1
    47   20   21 1
    48   20   22 1
    49   21   46 1
    50   21   47 1
    51   21   48 1
    52   22   49 1
    53   23   50 1
    54   23   51 1
    55   23   52 1
    56   24   53 1
@<TRIPOS>MOLECULE
CHEMBL397729
   36    38     0     0     0
SMALL
USER_CHARGES

@<TRIPOS>ATOM
      1 C1         -0.0187    1.5258    0.0104 C.3       1 <0>        -0.1280
      2 C2          0.0021   -0.0041    0.0020 C.3       1 <0>         0.1263
      3 C3         -1.4050   -0.4990   -0.0968 C.2       1 <0>        -0.1563
      4 C4         -1.8893   -1.4602    0.6737 C.2       1 <0>        -0.1194
      5 C5         -1.0025   -2.0625    1.6942 C.2       1 <0>        -0.1042
      6 C6         -1.3487   -3.1664    2.3583 C.2       1 <0>        -0.1013
      7 C7         -0.4655   -3.8041    3.3914 C.3       1 <0>        -0.0314
      8 C8          0.9936   -3.4019    3.2030 C.3       1 <0>         0.1519
      9 C9          1.1130   -1.8762    3.1323 C.3       1 <0>        -0.0794
     10 C10         0.2942   -1.3992    1.9564 C.2       1 <0>         0.2096
     11 N1          0.7076   -0.4636    1.1845 N.2       1 <0>        -0.4985
     12 N2          1.5266   -3.9970    1.9776 N.am      1 <0>        -0.7147
     13 C11         1.1226   -5.2250    1.5920 C.2       1 <0>         0.5524
     14 O1          1.5346   -5.7097    0.5555 O.2       1 <0>        -0.5147
     15 C12         0.1774   -5.9735    2.4398 C.2       1 <0>        -0.0920
     16 C13        -0.5904   -5.3050    3.2993 C.2       1 <0>        -0.1635
     17 C14        -1.5742   -6.0412    4.1718 C.3       1 <0>         0.5065
     18 F1         -1.5018   -7.4120    3.9022 F         1 <0>        -0.1716
     19 F2         -1.2656   -5.8136    5.5172 F         1 <0>        -0.1691
     20 F3         -2.8684   -5.5813    3.9059 F         1 <0>        -0.1700
     21 C15         0.7688   -0.4730   -1.2362 C.3       1 <0>        -0.1321
     22 H1          1.0039    1.9031    0.0027 H         1 <0>         0.0696
     23 H2         -0.5459    1.8868   -0.8726 H         1 <0>         0.0667
     24 H3         -0.5289    1.8773    0.9072 H         1 <0>         0.0561
     25 H4         -2.0575   -0.0507   -0.8315 H         1 <0>         0.1229
     26 H5         -2.9090   -1.7973    0.5604 H         1 <0>         0.1311
     27 H6         -2.3048   -3.6205    2.1439 H         1 <0>         0.1272
     28 H7         -0.7881   -3.4818    4.3814 H         1 <0>         0.1277
     29 H8          1.5784   -3.7687    4.0465 H         1 <0>         0.1018
     30 H9          0.7299   -1.4334    4.0517 H         1 <0>         0.1147
     31 H10         2.1707   -3.5082    1.4418 H         1 <0>         0.4126
     32 H11         0.1079   -7.0487    2.3650 H         1 <0>         0.1675
     33 H12         1.7878   -0.0876   -1.2001 H         1 <0>         0.0706
     34 H13         0.7930   -1.5625   -1.2575 H         1 <0>         0.0545
     35 H14         0.2719   -0.1030   -2.1330 H         1 <0>         0.0696
     36 H15         2.1568   -1.5942    2.9936 H         1 <0>         0.1071
@<TRIPOS>BOND
     1    1    2 1
     2    1   22 1
     3    1   23 1
     4    1   24 1
     5    2   11 1
     6    2    3 1
     7    2   21 1
     8    3    4 2
     9    3   25 1
    10    4    5 1
    11    4   26 1
    12    5   10 1
    13    5    6 2
    14    6    7 1
    15    6   27 1
    16    7   16 1
    17    7    8 1
    18    7   28 1
    19    8    9 1
    20    8   12 1
    21    8   29 1
    22    9   10 1
    23    9   30 1
    24    9   36 1
    25   10   11 2
    26   12   13 am
    27   12   31 1
    28   13   14 2
    29   13   15 1
    30   15   16 2
    31   15   32 1
    32   16   17 1
    33   17   18 1
    34   17   19 1
    35   17   20 1
    36   21   33 1
    37   21   34 1
    38   21   35 1
@<TRIPOS>MOLECULE
CHEMBL397729__1
   36    38     0     0     0
SMALL
USER_CHARGES

@<TRIPOS>ATOM
      1 C1         -0.0187    1.5258    0.0104 C.3       1 <0>        -0.1289
      2 C2          0.0021   -0.0041    0.0020 C.3       1 <0>         0.1259
      3 C3         -1.4048   -0.4986   -0.0979 C.2       1 <0>        -0.1564
      4 C4         -1.8990   -1.4405    0.6891 C.2       1 <0>        -0.1182
      5 C5         -1.0266   -2.0239    1.7328 C.2       1 <0>        -0.1049
      6 C6         -1.4098   -3.0969    2.4363 C.2       1 <0>        -0.1024
      7 C7         -0.5343   -3.6845    3.5000 C.3       1 <0>        -0.0360
      8 C8          0.9368   -3.3825    3.2183 C.3       1 <0>         0.1515
      9 C9          1.1263   -1.8658    3.1341 C.3       1 <0>        -0.0746
     10 C10         0.2862   -1.3835    1.9702 C.2       1 <0>         0.2130
     11 N1          0.7074   -0.4632    1.1842 N.2       1 <0>        -0.4959
     12 N2          1.7632   -3.9691    4.2701 N.am      1 <0>        -0.7175
     13 C11         1.4116   -5.1712    4.7823 C.2       1 <0>         0.5529
     14 O1          2.0603   -5.6657    5.6843 O.2       1 <0>        -0.5092
     15 C12         0.2362   -5.8773    4.2397 C.2       1 <0>        -0.1000
     16 C13        -0.7179   -5.1725    3.6221 C.2       1 <0>        -0.1581
     17 C14        -1.9430   -5.8500    3.0646 C.3       1 <0>         0.5071
     18 F1         -1.8674   -7.2254    3.3092 F         1 <0>        -0.1708
     19 F2         -3.0855   -5.3288    3.6812 F         1 <0>        -0.1690
     20 F3         -2.0136   -5.6248    1.6856 F         1 <0>        -0.1669
     21 C15         0.7693   -0.4727   -1.2359 C.3       1 <0>        -0.1318
     22 H1          1.0039    1.9031    0.0027 H         1 <0>         0.0700
     23 H2         -0.5459    1.8868   -0.8726 H         1 <0>         0.0677
     24 H3         -0.5289    1.8773    0.9072 H         1 <0>         0.0563
     25 H4         -2.0493   -0.0660   -0.8488 H         1 <0>         0.1241
     26 H5         -2.9187   -1.7766    0.5724 H         1 <0>         0.1326
     27 H6         -2.3699   -3.5476    2.2327 H         1 <0>         0.1323
     28 H7         -0.7951   -3.2257    4.4537 H         1 <0>         0.1240
     29 H8          1.2193   -3.8326    2.2666 H         1 <0>         0.0898
     30 H9          0.7878   -1.3962    4.0577 H         1 <0>         0.1039
     31 H10         2.5505   -3.5052    4.5956 H         1 <0>         0.4160
     32 H11         0.1473   -6.9490    4.3393 H         1 <0>         0.1692
     33 H12         1.7882   -0.0872   -1.1994 H         1 <0>         0.0708
     34 H13         0.7937   -1.5623   -1.2574 H         1 <0>         0.0553
     35 H14         0.2727   -0.1026   -2.1329 H         1 <0>         0.0705
     36 H15         2.1761   -1.6307    2.9585 H         1 <0>         0.1077
@<TRIPOS>BOND
     1    1    2 1
     2    1   22 1
     3    1   23 1
     4    1   24 1
     5    2   11 1
     6    2    3 1
     7    2   21 1
     8    3    4 2
     9    3   25 1
    10    4    5 1
    11    4   26 1
    12    5   10 1
    13    5    6 2
    14    6    7 1
    15    6   27 1
    16    7   16 1
    17    7    8 1
    18    7   28 1
    19    8    9 1
    20    8   12 1
    21    8   29 1
    22    9   10 1
    23    9   30 1
    24    9   36 1
    25   10   11 2
    26   12   13 am
    27   12   31 1
    28   13   14 2
    29   13   15 1
    30   15   16 2
    31   15   32 1
    32   16   17 1
    33   17   18 1
    34   17   19 1
    35   17   20 1
    36   21   33 1
    37   21   34 1
    38   21   35 1
@<TRIPOS>MOLECULE
CHEMBL397729__2
   36    38     0     0     0
SMALL
USER_CHARGES

@<TRIPOS>ATOM
      1 C1         -0.0187    1.5258    0.0104 C.3       1 <0>        -0.1314
      2 C2          0.0021   -0.0041    0.0020 C.3       1 <0>         0.1259
      3 C3         -1.4048   -0.4987   -0.0979 C.2       1 <0>        -0.1564
      4 C4         -2.0294   -1.1111    0.8949 C.2       1 <0>        -0.1182
      5 C5         -1.2986   -1.3371    2.1620 C.2       1 <0>        -0.1049
      6 C6         -1.9284   -1.7869    3.2545 C.2       1 <0>        -0.1024
      7 C7         -1.1912   -2.0258    4.5362 C.3       1 <0>        -0.0360
      8 C8          0.0463   -1.1335    4.6230 C.3       1 <0>         0.1516
      9 C9          0.9469   -1.4138    3.4170 C.3       1 <0>        -0.0746
     10 C10         0.1519   -1.0446    2.1822 C.2       1 <0>         0.2129
     11 N1          0.7075   -0.4633    1.1843 N.2       1 <0>        -0.4959
     12 N2          0.7414   -1.3886    5.8822 N.am      1 <0>        -0.7176
     13 C11         0.0096   -1.6298    6.9946 C.2       1 <0>         0.5529
     14 O1          0.5620   -1.8803    8.0486 O.2       1 <0>        -0.5091
     15 C12        -1.4625   -1.5863    6.9199 C.2       1 <0>        -0.1001
     16 C13        -2.0600   -1.7824    5.7397 C.2       1 <0>        -0.1580
     17 C14        -3.5620   -1.7606    5.6190 C.3       1 <0>         0.5071
     18 F1         -4.1273   -1.5166    6.8752 F         1 <0>        -0.1708
     19 F2         -3.9439   -0.7491    4.7313 F         1 <0>        -0.1669
     20 F3         -4.0092   -2.9961    5.1385 F         1 <0>        -0.1690
     21 C15         0.7693   -0.4728   -1.2360 C.3       1 <0>        -0.1292
     22 H1          1.0039    1.9031    0.0027 H         1 <0>         0.0708
     23 H2         -0.5459    1.8868   -0.8726 H         1 <0>         0.0703
     24 H3         -0.5289    1.8773    0.9072 H         1 <0>         0.0554
     25 H4         -1.9376   -0.3486   -1.0253 H         1 <0>         0.1241
     26 H5         -3.0523   -1.4391    0.7830 H         1 <0>         0.1326
     27 H6         -2.9899   -1.9811    3.2108 H         1 <0>         0.1323
     28 H7         -0.8592   -3.0638    4.5549 H         1 <0>         0.1240
     29 H8         -0.2630   -0.0885    4.6047 H         1 <0>         0.0899
     30 H9          1.8485   -0.8041    3.4756 H         1 <0>         0.1077
     31 H10         1.7107   -1.3848    5.9204 H         1 <0>         0.4160
     32 H11        -2.0501   -1.3983    7.8063 H         1 <0>         0.1691
     33 H12         1.7882   -0.0872   -1.1995 H         1 <0>         0.0701
     34 H13         0.7936   -1.5623   -1.2574 H         1 <0>         0.0561
     35 H14         0.2727   -0.1027   -2.1329 H         1 <0>         0.0679
     36 H15         1.2119   -2.4707    3.3877 H         1 <0>         0.1039
@<TRIPOS>BOND
     1    1    2 1
     2    1   22 1
     3    1   23 1
     4    1   24 1
     5    2   11 1
     6    2    3 1
     7    2   21 1
     8    3    4 2
     9    3   25 1
    10    4    5 1
    11    4   26 1
    12    5   10 1
    13    5    6 2
    14    6    7 1
    15    6   27 1
    16    7   16 1
    17    7    8 1
    18    7   28 1
    19    8    9 1
    20    8   12 1
    21    8   29 1
    22    9   10 1
    23    9   30 1
    24    9   36 1
    25   10   11 2
    26   12   13 am
    27   12   31 1
    28   13   14 2
    29   13   15 1
    30   15   16 2
    31   15   32 1
    32   16   17 1
    33   17   18 1
    34   17   19 1
    35   17   20 1
    36   21   33 1
    37   21   34 1
    38   21   35 1
@<TRIPOS>MOLECULE
CHEMBL397729__3
   36    38     0     0     0
SMALL
USER_CHARGES

@<TRIPOS>ATOM
      1 C1         -0.0187    1.5258    0.0104 C.3       1 <0>        -0.1280
      2 C2          0.0021   -0.0041    0.0020 C.3       1 <0>         0.1263
      3 C3          0.6077   -0.4651   -1.2845 C.2       1 <0>        -0.1563
      4 C4          1.5400   -1.4025   -1.3499 C.2       1 <0>        -0.1194
      5 C5          2.0197   -2.0118   -0.0893 C.2       1 <0>        -0.1041
      6 C6          2.7956   -3.0968   -0.0876 C.2       1 <0>        -0.1014
      7 C7          3.2886   -3.7414    1.1756 C.3       1 <0>        -0.0314
      8 C8          2.4088   -3.3784    2.3674 C.3       1 <0>         0.1519
      9 C9          2.2517   -1.8573    2.4603 C.3       1 <0>        -0.0794
     10 C10         1.6061   -1.3773    1.1822 C.2       1 <0>         0.2096
     11 N1          0.7076   -0.4636    1.1845 N.2       1 <0>        -0.4985
     12 N2          1.0934   -4.0040    2.2323 N.am      1 <0>        -0.7147
     13 C11         0.9813   -5.2268    1.6737 C.2       1 <0>         0.5523
     14 O1         -0.1131   -5.7360    1.5247 O.2       1 <0>        -0.5147
     15 C12         2.1983   -5.9394    1.2453 C.2       1 <0>        -0.0919
     16 C13         3.3052   -5.2399    0.9995 C.2       1 <0>        -0.1636
     17 C14         4.5620   -5.9387    0.5490 C.3       1 <0>         0.5065
     18 F1          4.3249   -7.3147    0.4618 F         1 <0>        -0.1716
     19 F2          4.9427   -5.4507   -0.7056 F         1 <0>        -0.1700
     20 F3          5.5853   -5.6994    1.4725 F         1 <0>        -0.1691
     21 C15        -1.4403   -0.5102    0.0675 C.3       1 <0>        -0.1321
     22 H1          1.0039    1.9031    0.0027 H         1 <0>         0.0561
     23 H2         -0.5459    1.8868   -0.8726 H         1 <0>         0.0667
     24 H3         -0.5289    1.8773    0.9072 H         1 <0>         0.0696
     25 H4          0.2682   -0.0122   -2.2043 H         1 <0>         0.1229
     26 H5          1.9421   -1.7155   -2.3022 H         1 <0>         0.1311
     27 H6          3.0810   -3.5301   -1.0348 H         1 <0>         0.1272
     28 H7          4.3029   -3.3970    1.3769 H         1 <0>         0.1277
     29 H8          2.8735   -3.7475    3.2817 H         1 <0>         0.1018
     30 H9          1.6190   -1.6033    3.3108 H         1 <0>         0.1071
     31 H10         0.3013   -3.5392    2.5443 H         1 <0>         0.4126
     32 H11         2.1928   -7.0134    1.1318 H         1 <0>         0.1675
     33 H12        -1.9944   -0.1411   -0.7956 H         1 <0>         0.0696
     34 H13        -1.4435   -1.6001    0.0623 H         1 <0>         0.0545
     35 H14        -1.9106   -0.1498    0.9824 H         1 <0>         0.0706
     36 H15         3.2305   -1.3920    2.5763 H         1 <0>         0.1147
@<TRIPOS>BOND
     1    1    2 1
     2    1   22 1
     3    1   23 1
     4    1   24 1
     5    2   11 1
     6    2    3 1
     7    2   21 1
     8    3    4 2
     9    3   25 1
    10    4    5 1
    11    4   26 1
    12    5   10 1
    13    5    6 2
    14    6    7 1
    15    6   27 1
    16    7   16 1
    17    7    8 1
    18    7   28 1
    19    8    9 1
    20    8   12 1
    21    8   29 1
    22    9   10 1
    23    9   30 1
    24    9   36 1
    25   10   11 2
    26   12   13 am
    27   12   31 1
    28   13   14 2
    29   13   15 1
    30   15   16 2
    31   15   32 1
    32   16   17 1
    33   17   18 1
    34   17   19 1
    35   17   20 1
    36   21   33 1
    37   21   34 1
    38   21   35 1
@<TRIPOS>MOLECULE
CHEMBL51639
   43    44     0     0     0
SMALL
USER_CHARGES

@<TRIPOS>ATOM
      1 C1         -0.0187    1.5258    0.0104 C.3       1 <0>        -0.1508
      2 C2          0.0021   -0.0041    0.0020 C.3       1 <0>        -0.0484
      3 C3         -1.4328   -0.5338    0.0146 C.3       1 <0>        -0.0351
      4 H1         -1.4167   -1.6222    0.0716 H         1 <0>         0.1044
      5 C4         -2.1823    0.0276    1.2241 C.3       1 <0>        -0.1166
      6 C5         -1.5234   -0.4791    2.5113 C.3       1 <0>        -0.0828
      7 C6         -0.0531   -0.1260    2.4702 C.2       1 <0>        -0.1189
      8 C7          0.5161    0.4985    3.4713 C.2       1 <0>        -0.1803
      9 C8          0.7431   -0.5119    1.2433 C.3       1 <0>        -0.0276
     10 H2          1.7325   -0.0569    1.2908 H         1 <0>         0.0817
     11 C9          0.8763   -2.0346    1.1752 C.3       1 <0>        -0.0804
     12 C10         1.7108   -2.5182    2.3331 C.ar      1 <0>        -0.0427
     13 C11         1.0982   -3.0552    3.4492 C.ar      1 <0>        -0.1808
     14 C12         1.8656   -3.5003    4.5147 C.ar      1 <0>         0.1523
     15 C13         3.2493   -3.4063    4.4603 C.ar      1 <0>        -0.1164
     16 C14         3.8616   -2.8691    3.3440 C.ar      1 <0>        -0.0759
     17 C15         3.0935   -2.4293    2.2760 C.ar      1 <0>         0.0744
     18 O1          3.6961   -1.9058    1.1751 O.3       1 <0>        -0.4857
     19 Br1         4.2963   -4.0125    5.9136 Br        1 <0>        -0.0305
     20 O2          1.2625   -4.0284    5.6133 O.3       1 <0>        -0.3012
     21 C16        -0.1649   -4.0940    5.6013 C.3       1 <0>         0.0243
     22 Br2        -2.3486    0.0207   -1.6344 Br        1 <0>        -0.1566
     23 C17         0.7176   -0.4978   -1.2570 C.3       1 <0>        -0.1573
     24 H3          1.0039    1.9031    0.0027 H         1 <0>         0.0596
     25 H4         -0.5459    1.8868   -0.8726 H         1 <0>         0.0673
     26 H5         -0.5289    1.8773    0.9072 H         1 <0>         0.0632
     27 H6         -2.1453    1.1167    1.2011 H         1 <0>         0.0823
     28 H7         -3.2208   -0.3019    1.1932 H         1 <0>         0.0771
     29 H8         -1.9903   -0.0029    3.3735 H         1 <0>         0.0775
     30 H9         -1.6383   -1.5608    2.5802 H         1 <0>         0.0724
     31 H10        -0.0656    0.7679    4.3405 H         1 <0>         0.0988
     32 H11         1.5669    0.7439    3.4275 H         1 <0>         0.0958
     33 H12        -0.1134   -2.4885    1.2260 H         1 <0>         0.0755
     34 H13         1.3573   -2.3157    0.2383 H         1 <0>         0.0956
     35 H14         0.0215   -3.1281    3.4917 H         1 <0>         0.1381
     36 H15         4.9383   -2.7956    3.3015 H         1 <0>         0.1446
     37 H16         3.8337   -0.9497    1.2193 H         1 <0>         0.3858
     38 H17        -0.5739   -3.0890    5.4974 H         1 <0>         0.0581
     39 H18        -0.4934   -4.7084    4.7631 H         1 <0>         0.0579
     40 H19        -0.5163   -4.5345    6.5344 H         1 <0>         0.1054
     41 H20         1.7402   -0.1206   -1.2653 H         1 <0>         0.0635
     42 H21         0.7322   -1.5877   -1.2628 H         1 <0>         0.0621
     43 H22         0.1900   -0.1368   -2.1399 H         1 <0>         0.0705
@<TRIPOS>BOND
     1    1    2 1
     2    1   24 1
     3    1   25 1
     4    1   26 1
     5    2    9 1
     6    2    3 1
     7    2   23 1
     8    3    4 1
     9    3    5 1
    10    3   22 1
    11    5    6 1
    12    5   27 1
    13    5   28 1
    14    6    7 1
    15    6   29 1
    16    6   30 1
    17    7    8 2
    18    7    9 1
    19    8   31 1
    20    8   32 1
    21    9   10 1
    22    9   11 1
    23   11   12 1
    24   11   33 1
    25   11   34 1
    26   12   17 ar
    27   12   13 ar
    28   13   14 ar
    29   13   35 1
    30   14   15 ar
    31   14   20 1
    32   15   16 ar
    33   15   19 1
    34   16   17 ar
    35   16   36 1
    36   17   18 1
    37   18   37 1
    38   20   21 1
    39   21   38 1
    40   21   39 1
    41   21   40 1
    42   23   41 1
    43   23   42 1
    44   23   43 1
@<TRIPOS>MOLECULE
CHEMBL139749
   32    34     0     0     0
SMALL
USER_CHARGES

@<TRIPOS>ATOM
      1 C1         -0.0187    1.5258    0.0104 C.3       1 <0>        -0.1427
      2 C2          0.0021   -0.0041    0.0020 C.3       1 <0>         0.1663
      3 C3         -1.4115   -0.5287    0.0284 C.ar      1 <0>        -0.1553
      4 C4         -2.4388    0.1750   -0.5577 C.ar      1 <0>        -0.0588
      5 C5         -3.7364   -0.3344   -0.5194 C.ar      1 <0>        -0.0449
      6 C6         -3.9881   -1.5518    0.1110 C.ar      1 <0>        -0.0711
      7 C7         -2.9543   -2.2527    0.6979 C.ar      1 <0>        -0.1397
      8 C8         -1.6652   -1.7432    0.6589 C.ar      1 <0>         0.1638
      9 N1         -0.5982   -2.4315    1.2503 N.am      1 <0>        -0.6687
     10 C9          0.5636   -1.7823    1.4718 C.2       1 <0>         0.6621
     11 O1          1.5029   -2.3804    1.9583 O.2       1 <0>        -0.5009
     12 O2          0.6935   -0.4804    1.1602 O.3       1 <0>        -0.3314
     13 C10        -4.8490    0.4196   -1.1491 C.2       1 <0>        -0.0986
     14 C11        -6.1454   -0.0678   -1.1166 C.2       1 <0>        -0.0662
     15 C12        -7.1006    0.7182   -1.7345 C.2       1 <0>        -0.1567
     16 S1         -6.1351    2.0939   -2.3263 S.3       1 <0>         0.2881
     17 C13        -4.6202    1.6230   -1.7749 C.2       1 <0>        -0.2276
     18 C14        -8.5074    0.4855   -1.8660 C.1       1 <0>         0.2902
     19 N2         -9.6234    0.3009   -1.9704 N.1       1 <0>        -0.3913
     20 C15         0.7122   -0.5001   -1.2591 C.3       1 <0>        -0.1720
     21 H1          1.0039    1.9031    0.0027 H         1 <0>         0.0790
     22 H2         -0.5459    1.8868   -0.8726 H         1 <0>         0.0861
     23 H3         -0.5289    1.8773    0.9072 H         1 <0>         0.0741
     24 H4         -2.2409    1.1182   -1.0452 H         1 <0>         0.1373
     25 H5         -4.9929   -1.9466    0.1404 H         1 <0>         0.1359
     26 H6         -3.1488   -3.1961    1.1863 H         1 <0>         0.1380
     27 H7         -0.6934   -3.3646    1.4975 H         1 <0>         0.4307
     28 H8         -6.3945   -1.0038   -0.6387 H         1 <0>         0.1534
     29 H9         -3.6812    2.1445   -1.8877 H         1 <0>         0.1961
     30 H10         1.7351   -0.1237   -1.2720 H         1 <0>         0.0797
     31 H11         0.7261   -1.5900   -1.2634 H         1 <0>         0.0610
     32 H12         0.1815   -0.1400   -2.1404 H         1 <0>         0.0843
@<TRIPOS>BOND
     1    1    2 1
     2    1   21 1
     3    1   22 1
     4    1   23 1
     5    2   12 1
     6    2    3 1
     7    2   20 1
     8    3    8 ar
     9    3    4 ar
    10    4    5 ar
    11    4   24 1
    12    5    6 ar
    13    5   13 1
    14    6    7 ar
    15    6   25 1
    16    7    8 ar
    17    7   26 1
    18    8    9 1
    19    9   10 am
    20    9   27 1
    21   10   11 2
    22   10   12 1
    23   13   17 2
    24   13   14 1
    25   14   15 2
    26   14   28 1
    27   15   16 1
    28   15   18 1
    29   16   17 1
    30   17   29 1
    31   18   19 3
    32   20   30 1
    33   20   31 1
    34   20   32 1
@<TRIPOS>MOLECULE
CHEMBL181674
   37    41     0     0     0
SMALL
USER_CHARGES

@<TRIPOS>ATOM
      1 C1         -0.8310   -0.1033   -1.0015 C.ar      1 <0>        -0.1096
      2 C2         -0.5115   -0.9207   -2.0842 C.ar      1 <0>        -0.1122
      3 C3          0.6723   -1.5904   -2.1312 C.ar      1 <0>        -0.1017
      4 C4          1.5889   -1.4578   -1.0735 C.ar      1 <0>        -0.0446
      5 C5          2.8201   -2.1331   -1.0881 C.ar      1 <0>        -0.0805
      6 C6          3.6867   -1.9802   -0.0425 C.ar      1 <0>         0.1122
      7 C7          3.3631   -1.1589    1.0433 C.ar      1 <0>        -0.1036
      8 C8          2.1789   -0.4924    1.0867 C.ar      1 <0>        -0.0888
      9 C9          1.2638   -0.6265    0.0277 C.ar      1 <0>        -0.0458
     10 C10         0.0316    0.0489    0.0403 C.ar      1 <0>        -0.1054
     11 N1          4.9151   -2.6549   -0.0576 N.am      1 <0>        -0.5303
     12 C11         6.0880   -2.0196   -0.1581 C.2       1 <0>         0.5326
     13 O1          6.2283   -0.8187   -0.2456 O.2       1 <0>        -0.4626
     14 C12         7.2115   -3.0310   -0.1450 C.3       1 <0>        -0.1202
     15 H1          7.8577   -2.9691   -1.0206 H         1 <0>         0.1400
     16 C13         6.4655   -4.3922   -0.0178 C.3       1 <0>        -0.1195
     17 H2          6.6941   -5.0906   -0.8228 H         1 <0>         0.1407
     18 C14         5.0102   -3.9863    0.0329 C.2       1 <0>         0.5328
     19 O2          4.0740   -4.7493    0.1369 O.2       1 <0>        -0.4629
     20 C15         6.8928   -4.9120    1.3907 C.3       1 <0>        -0.0579
     21 C16         6.9473   -3.5595    2.1905 C.3       1 <0>        -0.1337
     22 C17         7.9839   -2.8873    1.2040 C.3       1 <0>        -0.0577
     23 C18         9.0225   -4.0147    1.1625 C.2       1 <0>        -0.1566
     24 C19         8.3937   -5.1924    1.2476 C.2       1 <0>        -0.1583
     25 H3         -1.7753    0.4207   -0.9911 H         1 <0>         0.1269
     26 H4         -1.2141   -1.0246   -2.8979 H         1 <0>         0.1271
     27 H5          0.9063   -2.2206   -2.9764 H         1 <0>         0.1294
     28 H6          3.0805   -2.7699   -1.9206 H         1 <0>         0.1309
     29 H7          4.0637   -1.0533    1.8585 H         1 <0>         0.1263
     30 H8          1.9420    0.1375    1.9314 H         1 <0>         0.1377
     31 H9         -0.2295    0.6860    0.8724 H         1 <0>         0.1311
     32 H10         6.2895   -5.7167    1.8108 H         1 <0>         0.1198
     33 H11         5.9912   -3.0361    2.1913 H         1 <0>         0.0683
     34 H12         7.3479   -3.6850    3.1964 H         1 <0>         0.0951
     35 H13         8.3482   -1.8890    1.4467 H         1 <0>         0.1230
     36 H14        10.0889   -3.8873    1.0489 H         1 <0>         0.1371
     37 H15         8.8556   -6.1685    1.2368 H         1 <0>         0.1413
@<TRIPOS>BOND
     1    1   10 ar
     2    1    2 ar
     3    1   25 1
     4    2    3 ar
     5    2   26 1
     6    3    4 ar
     7    3   27 1
     8    4    9 ar
     9    4    5 ar
    10    5    6 ar
    11    5   28 1
    12    6    7 ar
    13    6   11 1
    14    7    8 ar
    15    7   29 1
    16    8    9 ar
    17    8   30 1
    18    9   10 ar
    19   10   31 1
    20   11   18 am
    21   11   12 am
    22   12   13 2
    23   12   14 1
    24   14   15 1
    25   14   22 1
    26   14   16 1
    27   16   17 1
    28   16   18 1
    29   16   20 1
    30   18   19 2
    31   20   24 1
    32   20   21 1
    33   20   32 1
    34   21   22 1
    35   21   33 1
    36   21   34 1
    37   22   23 1
    38   22   35 1
    39   23   24 2
    40   23   36 1
    41   24   37 1
@<TRIPOS>MOLECULE
CHEMBL181674__1
   37    41     0     0     0
SMALL
USER_CHARGES

@<TRIPOS>ATOM
      1 C1         -0.7223    0.0473    1.0985 C.ar      1 <0>        -0.1102
      2 C2         -0.2879   -0.6111    2.2475 C.ar      1 <0>        -0.1123
      3 C3          0.8994   -1.2758    2.2675 C.ar      1 <0>        -0.1021
      4 C4          1.7022   -1.3007    1.1137 C.ar      1 <0>        -0.0445
      5 C5          2.9329   -1.9769    1.0975 C.ar      1 <0>        -0.0803
      6 C6          3.6867   -1.9802   -0.0425 C.ar      1 <0>         0.1154
      7 C7          3.2480   -1.3181   -1.1946 C.ar      1 <0>        -0.1040
      8 C8          2.0616   -0.6544   -1.2100 C.ar      1 <0>        -0.0893
      9 C9          1.2603   -0.6310   -0.0549 C.ar      1 <0>        -0.0463
     10 C10         0.0284    0.0446   -0.0369 C.ar      1 <0>        -0.1052
     11 N1          4.9151   -2.6549   -0.0576 N.am      1 <0>        -0.5280
     12 C11         6.0881   -2.0196   -0.1581 C.2       1 <0>         0.5356
     13 O1          6.2283   -0.8186   -0.2450 O.2       1 <0>        -0.4657
     14 C12         7.2117   -3.0309   -0.1460 C.3       1 <0>        -0.1239
     15 H1          7.8566   -2.9697   -1.0226 H         1 <0>         0.1417
     16 C13         6.4655   -4.3918   -0.0168 C.3       1 <0>        -0.1225
     17 H2          6.6944   -5.0916   -0.8206 H         1 <0>         0.1425
     18 C14         5.0102   -3.9862    0.0329 C.2       1 <0>         0.5360
     19 O2          4.0740   -4.7494    0.1362 O.2       1 <0>        -0.4659
     20 C15         6.8924   -4.9094    1.3928 C.3       1 <0>        -0.0541
     21 C16         8.3841   -4.4148    1.4395 C.3       1 <0>        -0.1111
     22 C17         7.9860   -2.8864    1.2018 C.3       1 <0>        -0.0581
     23 C18         6.8813   -2.7176    2.2519 C.2       1 <0>        -0.1727
     24 C19         6.2549   -3.9118    2.3674 C.2       1 <0>        -0.1757
     25 H3         -1.6708    0.5636    1.1077 H         1 <0>         0.1268
     26 H4         -0.9026   -0.5932    3.1354 H         1 <0>         0.1268
     27 H5          1.2235   -1.7812    3.1653 H         1 <0>         0.1286
     28 H6          3.2818   -2.4911    1.9808 H         1 <0>         0.1292
     29 H7          3.8607   -1.3343   -2.0839 H         1 <0>         0.1266
     30 H8          1.7358   -0.1472   -2.1061 H         1 <0>         0.1375
     31 H9         -0.3214    0.5590   -0.9198 H         1 <0>         0.1309
     32 H10         6.7095   -5.9649    1.5943 H         1 <0>         0.1223
     33 H11         8.8472   -4.5763    2.4129 H         1 <0>         0.0893
     34 H12         8.9846   -4.8221    0.6261 H         1 <0>         0.0884
     35 H13         8.7964   -2.1577    1.2162 H         1 <0>         0.1221
     36 H14         6.6582   -1.8105    2.7939 H         1 <0>         0.1393
     37 H15         5.4278   -4.1175    3.0307 H         1 <0>         0.1330
@<TRIPOS>BOND
     1    1   10 ar
     2    1    2 ar
     3    1   25 1
     4    2    3 ar
     5    2   26 1
     6    3    4 ar
     7    3   27 1
     8    4    9 ar
     9    4    5 ar
    10    5    6 ar
    11    5   28 1
    12    6    7 ar
    13    6   11 1
    14    7    8 ar
    15    7   29 1
    16    8    9 ar
    17    8   30 1
    18    9   10 ar
    19   10   31 1
    20   11   18 am
    21   11   12 am
    22   12   13 2
    23   12   14 1
    24   14   15 1
    25   14   22 1
    26   14   16 1
    27   16   17 1
    28   16   18 1
    29   16   20 1
    30   18   19 2
    31   20   24 1
    32   20   21 1
    33   20   32 1
    34   21   22 1
    35   21   33 1
    36   21   34 1
    37   22   23 1
    38   22   35 1
    39   23   24 2
    40   23   36 1
    41   24   37 1
@<TRIPOS>MOLECULE
CHEMBL308773
   62    66     0     0     0
SMALL
USER_CHARGES

@<TRIPOS>ATOM
      1 C1          0.3578    1.6189    0.0344 C.3       1 <0>        -0.1535
      2 C2          0.1956    0.0978    0.0598 C.3       1 <0>        -0.0461
      3 C3         -1.2388   -0.2581    0.3965 C.3       1 <0>        -0.1089
      4 C4         -1.5861    0.4380    1.7240 C.3       1 <0>        -0.1166
      5 C5         -0.6251    0.0228    2.8318 C.3       1 <0>        -0.0658
      6 C6          0.8371    0.2832    2.4336 C.3       1 <0>        -0.0829
      7 C7          1.1013   -0.5075    1.1668 C.3       1 <0>        -0.0789
      8 C8          2.4946   -0.3448    0.5498 C.3       1 <0>        -0.1139
      9 C9          2.2654   -0.7395   -0.9349 C.3       1 <0>        -0.1167
     10 C10         0.7619   -0.5018   -1.2229 C.3       1 <0>        -0.1150
     11 C11         0.5959    0.4635   -2.3682 C.2       1 <0>         0.4315
     12 O1          1.4754    1.2614   -2.6221 O.2       1 <0>        -0.4743
     13 C12        -0.5835    0.4401   -3.1470 C.2       1 <0>        -0.0945
     14 C13        -1.6655   -0.4053   -2.9706 C.2       1 <0>        -0.1080
     15 C14        -2.5991   -0.0820   -3.9567 C.2       1 <0>        -0.2167
     16 C15        -2.0864    0.9296   -4.7008 C.2       1 <0>         0.0349
     17 N1         -0.8707    1.2589   -4.2183 N.pl3     1 <0>        -0.5202
     18 H1         -0.2930    1.9549   -4.5687 H         1 <0>         0.4228
     19 C16         1.7622   -0.1756    3.5606 C.3       1 <0>        -0.1081
     20 C17         1.4544    0.6252    4.8312 C.3       1 <0>        -0.1328
     21 C18         0.2975    1.5803    4.5450 C.3       1 <0>         0.1504
     22 C19        -0.9323    0.7768    4.1206 C.3       1 <0>        -0.0639
     23 C20        -2.1038    1.7406    3.9270 C.3       1 <0>        -0.1159
     24 C21        -2.4830    2.3142    5.2958 C.3       1 <0>        -0.1366
     25 C22        -1.2558    2.7681    6.0312 C.2       1 <0>         0.5153
     26 O2         -1.4009    3.5100    6.9795 O.2       1 <0>        -0.5553
     27 N2         -0.0131    2.4034    5.7030 N.am      1 <0>        -0.6002
     28 C23         1.0918    2.8548    6.5524 C.3       1 <0>         0.0716
     29 C24        -1.2882   -0.2246    5.2213 C.3       1 <0>        -0.1474
     30 H2          1.4045    1.8698   -0.1380 H         1 <0>         0.0640
     31 H3         -0.2524    2.0361   -0.7667 H         1 <0>         0.0495
     32 H4          0.0371    2.0345    0.9896 H         1 <0>         0.0680
     33 H5         -1.9031    0.0954   -0.3920 H         1 <0>         0.0707
     34 H6         -1.3362   -1.3380    0.5079 H         1 <0>         0.0678
     35 H7         -1.5284    1.5178    1.5871 H         1 <0>         0.0697
     36 H8         -2.6021    0.1693    2.0132 H         1 <0>         0.0677
     37 H9         -0.7407   -1.0455    3.0146 H         1 <0>         0.0762
     38 H10         0.9803    1.3461    2.2389 H         1 <0>         0.0847
     39 H11         0.8626   -1.5596    1.3220 H         1 <0>         0.0799
     40 H12         2.8321    0.6888    0.6264 H         1 <0>         0.0698
     41 H13         3.2072   -1.0204    1.0229 H         1 <0>         0.0680
     42 H14         2.8747   -0.1135   -1.5868 H         1 <0>         0.0789
     43 H15         2.5136   -1.7901   -1.0853 H         1 <0>         0.0689
     44 H16         0.2668   -1.4462   -1.4491 H         1 <0>         0.0981
     45 H17        -1.7676   -1.1696   -2.2144 H         1 <0>         0.1484
     46 H18        -3.5598   -0.5538   -4.1015 H         1 <0>         0.1448
     47 H19        -2.5751    1.3989   -5.5418 H         1 <0>         0.1723
     48 H20         1.6029   -1.2368    3.7522 H         1 <0>         0.0669
     49 H21         2.7995   -0.0105    3.2692 H         1 <0>         0.0690
     50 H22         1.1746   -0.0571    5.6339 H         1 <0>         0.0743
     51 H23         2.3351    1.1961    5.1252 H         1 <0>         0.0720
     52 H24         0.5773    2.2315    3.7169 H         1 <0>         0.0732
     53 H25        -1.8081    2.5492    3.2586 H         1 <0>         0.0716
     54 H26        -2.9541    1.2056    3.5041 H         1 <0>         0.0851
     55 H27        -3.1549    3.1614    5.1582 H         1 <0>         0.0988
     56 H28        -2.9903    1.5466    5.8804 H         1 <0>         0.1014
     57 H29         1.4625    3.8128    6.1877 H         1 <0>         0.0548
     58 H30         0.7391    2.9682    7.5775 H         1 <0>         0.0772
     59 H31         1.8958    2.1194    6.5240 H         1 <0>         0.0751
     60 H32        -0.4473   -0.8986    5.3850 H         1 <0>         0.0624
     61 H33        -1.5083    0.3125    6.1439 H         1 <0>         0.0554
     62 H34        -2.1624   -0.8012    4.9191 H         1 <0>         0.0613
@<TRIPOS>BOND
     1    1    2 1
     2    1   30 1
     3    1   31 1
     4    1   32 1
     5    2    7 1
     6    2   10 1
     7    2    3 1
     8    3    4 1
     9    3   33 1
    10    3   34 1
    11    4    5 1
    12    4   35 1
    13    4   36 1
    14    5   22 1
    15    5    6 1
    16    5   37 1
    17    6    7 1
    18    6   19 1
    19    6   38 1
    20    7    8 1
    21    7   39 1
    22    8    9 1
    23    8   40 1
    24    8   41 1
    25    9   10 1
    26    9   42 1
    27    9   43 1
    28   10   11 1
    29   10   44 1
    30   11   12 2
    31   11   13 1
    32   13   17 1
    33   13   14 2
    34   14   15 1
    35   14   45 1
    36   15   16 2
    37   15   46 1
    38   16   17 1
    39   16   47 1
    40   17   18 1
    41   19   20 1
    42   19   48 1
    43   19   49 1
    44   20   21 1
    45   20   50 1
    46   20   51 1
    47   21   27 1
    48   21   22 1
    49   21   52 1
    50   22   23 1
    51   22   29 1
    52   23   24 1
    53   23   53 1
    54   23   54 1
    55   24   25 1
    56   24   55 1
    57   24   56 1
    58   25   26 2
    59   25   27 am
    60   27   28 1
    61   28   57 1
    62   28   58 1
    63   28   59 1
    64   29   60 1
    65   29   61 1
    66   29   62 1
@<TRIPOS>MOLECULE
CHEMBL134260
   41    43     0     0     0
SMALL
USER_CHARGES

@<TRIPOS>ATOM
      1 C1         -1.9609    0.5762    0.3864 C.3       1 <0>        -0.0970
      2 C2         -0.8390   -0.4052    0.1648 C.2       1 <0>        -0.1371
      3 C3         -0.7198   -1.0700   -1.0241 C.2       1 <0>        -0.0646
      4 C4          0.3286   -1.9646   -1.1844 C.2       1 <0>        -0.1411
      5 S1          1.1601   -1.8549    0.3915 S.3       1 <0>         0.1407
      6 C5          0.0941   -0.6464    1.1597 C.2       1 <0>        -0.0626
      7 C6          0.1830   -0.0566    2.5107 C.ar      1 <0>        -0.0811
      8 C7          0.0562    1.3241    2.6817 C.ar      1 <0>        -0.0410
      9 C8          0.1420    1.8670    3.9438 C.ar      1 <0>        -0.1922
     10 C9          0.3536    1.0450    5.0481 C.ar      1 <0>         0.2395
     11 C10         0.4772   -0.3280    4.8846 C.ar      1 <0>        -0.1473
     12 C11         0.3881   -0.8777    3.6200 C.ar      1 <0>        -0.0478
     13 C12         0.6959   -1.2438    6.0603 C.3       1 <0>        -0.0442
     14 C13         1.2526   -0.4630    7.2506 C.3       1 <0>        -0.1217
     15 C14         0.3610    0.7601    7.5016 C.3       1 <0>         0.1722
     16 N1          0.4414    1.6251    6.3170 N.pl3     1 <0>        -0.7367
     17 C15         0.8585    1.5200    8.7328 C.3       1 <0>        -0.1545
     18 C16        -1.0855    0.3111    7.7181 C.3       1 <0>        -0.1621
     19 C17         1.6872   -2.3412    5.6681 C.3       1 <0>        -0.1474
     20 C18         0.6589   -2.7692   -2.3220 C.1       1 <0>         0.2939
     21 N2          0.9209   -3.4076   -3.2244 N.1       1 <0>        -0.3989
     22 H1         -1.6128    1.5836    0.1583 H         1 <0>         0.0706
     23 H2         -2.7977    0.3247   -0.2653 H         1 <0>         0.0673
     24 H3         -2.2838    0.5302    1.4265 H         1 <0>         0.0716
     25 H4         -1.4277   -0.9023   -1.8223 H         1 <0>         0.1453
     26 H5         -0.1082    1.9633    1.8268 H         1 <0>         0.1274
     27 H6          0.0451    2.9342    4.0782 H         1 <0>         0.1258
     28 H7          0.4821   -1.9456    3.4893 H         1 <0>         0.1266
     29 H8         -0.2529   -1.7006    6.3418 H         1 <0>         0.0815
     30 H9          1.2567   -1.0997    8.1353 H         1 <0>         0.0779
     31 H10         2.2684   -0.1353    7.0295 H         1 <0>         0.0716
     32 H11         0.5534    2.5838    6.4137 H         1 <0>         0.4017
     33 H12         1.8840    1.8496    8.5665 H         1 <0>         0.0632
     34 H13         0.2216    2.3874    8.9063 H         1 <0>         0.0626
     35 H14         0.8242    0.8643    9.6029 H         1 <0>         0.0740
     36 H15        -1.1344   -0.3537    8.5805 H         1 <0>         0.0659
     37 H16        -1.7141    1.1837    7.8959 H         1 <0>         0.0585
     38 H17        -1.4387   -0.2166    6.8321 H         1 <0>         0.0630
     39 H18         2.6348   -1.8879    5.3773 H         1 <0>         0.0579
     40 H19         1.8478   -3.0060    6.5168 H         1 <0>         0.0591
     41 H20         1.2851   -2.9116    4.8308 H         1 <0>         0.0595
@<TRIPOS>BOND
     1    1    2 1
     2    1   22 1
     3    1   23 1
     4    1   24 1
     5    2    6 2
     6    2    3 1
     7    3    4 2
     8    3   25 1
     9    4    5 1
    10    4   20 1
    11    5    6 1
    12    6    7 1
    13    7   12 ar
    14    7    8 ar
    15    8    9 ar
    16    8   26 1
    17    9   10 ar
    18    9   27 1
    19   10   16 1
    20   10   11 ar
    21   11   12 ar
    22   11   13 1
    23   12   28 1
    24   13   14 1
    25   13   19 1
    26   13   29 1
    27   14   15 1
    28   14   30 1
    29   14   31 1
    30   15   16 1
    31   15   17 1
    32   15   18 1
    33   16   32 1
    34   17   33 1
    35   17   34 1
    36   17   35 1
    37   18   36 1
    38   18   37 1
    39   18   38 1
    40   19   39 1
    41   19   40 1
    42   19   41 1
    43   20   21 3
@<TRIPOS>MOLECULE
CHEMBL134260__1
   41    43     0     0     0
SMALL
USER_CHARGES

@<TRIPOS>ATOM
      1 C1         -1.9609    0.5763    0.3864 C.3       1 <0>        -0.0969
      2 C2         -0.8389   -0.4051    0.1648 C.2       1 <0>        -0.1371
      3 C3         -0.7197   -1.0699   -1.0241 C.2       1 <0>        -0.0646
      4 C4          0.3286   -1.9646   -1.1844 C.2       1 <0>        -0.1410
      5 S1          1.1601   -1.8550    0.3916 S.3       1 <0>         0.1403
      6 C5          0.0941   -0.6464    1.1597 C.2       1 <0>        -0.0624
      7 C6          0.1830   -0.0566    2.5107 C.ar      1 <0>        -0.0812
      8 C7          0.0562    1.3241    2.6817 C.ar      1 <0>        -0.0410
      9 C8          0.1383    1.8666    3.9443 C.ar      1 <0>        -0.1922
     10 C9          0.3487    1.0444    5.0487 C.ar      1 <0>         0.2395
     11 C10         0.4787   -0.3278    4.8844 C.ar      1 <0>        -0.1474
     12 C11         0.3881   -0.8777    3.6200 C.ar      1 <0>        -0.0478
     13 C12         0.7172   -1.2415    6.0579 C.3       1 <0>        -0.0444
     14 C13         0.2864   -0.5651    7.3591 C.3       1 <0>        -0.1216
     15 C14         0.9391    0.8212    7.4367 C.3       1 <0>         0.1722
     16 N1          0.4236    1.6232    6.3190 N.pl3     1 <0>        -0.7367
     17 C15         0.5780    1.4903    8.7643 C.3       1 <0>        -0.1544
     18 C16         2.4586    0.6857    7.3200 C.3       1 <0>        -0.1623
     19 C17        -0.0875   -2.5288    5.8674 C.3       1 <0>        -0.1471
     20 C18         0.6589   -2.7693   -2.3219 C.1       1 <0>         0.2939
     21 N2          0.9209   -3.4076   -3.2244 N.1       1 <0>        -0.3989
     22 H1         -1.6127    1.5837    0.1583 H         1 <0>         0.0706
     23 H2         -2.7976    0.3248   -0.2653 H         1 <0>         0.0673
     24 H3         -2.2838    0.5303    1.4264 H         1 <0>         0.0716
     25 H4         -1.4277   -0.9022   -1.8223 H         1 <0>         0.1453
     26 H5         -0.1054    1.9636    1.8265 H         1 <0>         0.1274
     27 H6          0.0396    2.9336    4.0789 H         1 <0>         0.1258
     28 H7          0.4809   -1.9457    3.4894 H         1 <0>         0.1267
     29 H8          1.7780   -1.4860    6.1137 H         1 <0>         0.0814
     30 H9         -0.7984   -0.4594    7.3739 H         1 <0>         0.0717
     31 H10         0.6080   -1.1683    8.2081 H         1 <0>         0.0779
     32 H11         0.1401    2.5400    6.4602 H         1 <0>         0.4017
     33 H12         0.9370    0.8762    9.5902 H         1 <0>         0.0740
     34 H13         1.0442    2.4743    8.8139 H         1 <0>         0.0626
     35 H14        -0.5045    1.5972    8.8348 H         1 <0>         0.0632
     36 H15         2.7098    0.2219    6.3661 H         1 <0>         0.0630
     37 H16         2.9168    1.6731    7.3757 H         1 <0>         0.0585
     38 H17         2.8317    0.0655    8.1350 H         1 <0>         0.0660
     39 H18         0.2299   -3.0232    4.9493 H         1 <0>         0.0595
     40 H19         0.0829   -3.1925    6.7151 H         1 <0>         0.0589
     41 H20        -1.1485   -2.2877    5.8022 H         1 <0>         0.0579
@<TRIPOS>BOND
     1    1    2 1
     2    1   22 1
     3    1   23 1
     4    1   24 1
     5    2    6 2
     6    2    3 1
     7    3    4 2
     8    3   25 1
     9    4    5 1
    10    4   20 1
    11    5    6 1
    12    6    7 1
    13    7   12 ar
    14    7    8 ar
    15    8    9 ar
    16    8   26 1
    17    9   10 ar
    18    9   27 1
    19   10   16 1
    20   10   11 ar
    21   11   12 ar
    22   11   13 1
    23   12   28 1
    24   13   14 1
    25   13   19 1
    26   13   29 1
    27   14   15 1
    28   14   30 1
    29   14   31 1
    30   15   16 1
    31   15   17 1
    32   15   18 1
    33   16   32 1
    34   17   33 1
    35   17   34 1
    36   17   35 1
    37   18   36 1
    38   18   37 1
    39   18   38 1
    40   19   39 1
    41   19   40 1
    42   19   41 1
    43   20   21 3
@<TRIPOS>MOLECULE
CHEMBL232760
   61    65     0     0     0
SMALL
USER_CHARGES

@<TRIPOS>ATOM
      1 C1         -0.1130    1.3807   -0.1915 C.3       1 <0>        -0.1154
      2 C2          0.2384   -0.0803   -0.0775 C.ar      1 <0>        -0.0890
      3 C3          0.8119   -0.7383   -1.1524 C.ar      1 <0>        -0.1173
      4 C4          1.1386   -2.0801   -1.0585 C.ar      1 <0>        -0.1198
      5 C5          0.8949   -2.7729    0.1082 C.ar      1 <0>        -0.1021
      6 C6          0.3153   -2.1154    1.1999 C.ar      1 <0>        -0.0496
      7 C7         -0.0068   -0.7563    1.0982 C.ar      1 <0>        -0.1079
      8 C8          0.0522   -2.8452    2.4466 C.2       1 <0>        -0.1136
      9 C9         -0.0315   -4.1933    2.4352 C.2       1 <0>         0.0966
     10 C10        -0.1654   -4.9752    3.5808 C.2       1 <0>        -0.0995
     11 C11        -1.0101   -6.0780    3.4766 C.2       1 <0>        -0.0201
     12 C12        -1.3212   -6.8559    4.6820 C.2       1 <0>        -0.1151
     13 C13        -1.2130   -6.2759    5.8882 C.2       1 <0>        -0.1250
     14 C14        -0.7117   -4.8534    5.9280 C.3       1 <0>         0.1204
     15 C15         0.4531   -4.7845    4.9273 C.3       1 <0>         0.0119
     16 C16         1.3078   -3.5941    5.1421 C.2       1 <0>        -0.0971
     17 C17         1.1397   -2.7858    6.1561 C.2       1 <0>        -0.1472
     18 C18         0.1362   -3.0202    7.2445 C.3       1 <0>         0.1462
     19 N1         -0.2928   -4.4257    7.2495 N.3       1 <0>        -0.6694
     20 C19        -1.0639   -2.0981    7.0491 C.3       1 <0>        -0.1764
     21 C20         0.7918   -2.7014    8.5929 C.3       1 <0>        -0.1340
     22 C21         2.4985   -3.3338    4.2450 C.3       1 <0>        -0.1233
     23 C22        -1.5257   -6.4229    2.1426 C.ar      1 <0>        -0.1194
     24 C23        -0.9700   -5.7714    1.0246 C.ar      1 <0>         0.1246
     25 C24        -1.4008   -6.0872   -0.2502 C.ar      1 <0>        -0.1276
     26 C25        -2.3915   -7.0349   -0.4332 C.ar      1 <0>        -0.0917
     27 C26        -2.9610   -7.6693    0.6590 C.ar      1 <0>         0.0631
     28 C27        -2.5352   -7.3657    1.9490 C.ar      1 <0>         0.1225
     29 O1         -3.1297   -7.9868    3.0016 O.3       1 <0>        -0.3254
     30 C28        -4.2871   -7.3584    3.5564 C.3       1 <0>         0.0406
     31 O2         -3.9422   -8.5942    0.4723 O.3       1 <0>        -0.4876
     32 O3         -0.0236   -4.8143    1.2153 O.3       1 <0>        -0.2306
     33 H1          0.7388    1.9847    0.1211 H         1 <0>         0.0704
     34 H2         -0.3639    1.6144   -1.2262 H         1 <0>         0.0664
     35 H3         -0.9680    1.5998    0.4481 H         1 <0>         0.0654
     36 H4          1.0051   -0.2016   -2.0695 H         1 <0>         0.1203
     37 H5          1.5853   -2.5858   -1.9018 H         1 <0>         0.1223
     38 H6          1.1501   -3.8199    0.1797 H         1 <0>         0.1387
     39 H7         -0.4498   -0.2404    1.9372 H         1 <0>         0.1211
     40 H8         -0.0744   -2.3041    3.3727 H         1 <0>         0.1416
     41 H9         -1.6137   -7.8927    4.6147 H         1 <0>         0.1392
     42 H10        -1.4712   -6.7971    6.7912 H         1 <0>         0.1341
     43 H11        -1.5161   -4.2161    5.5585 H         1 <0>         0.0492
     44 H12         1.0785   -5.6775    5.1187 H         1 <0>         0.0970
     45 H13         1.7561   -1.9036    6.2096 H         1 <0>         0.1155
     46 H14        -1.0079   -4.5853    7.9432 H         1 <0>         0.3515
     47 H15        -1.5258   -2.3026    6.0832 H         1 <0>         0.0545
     48 H16        -1.7898   -2.2731    7.8432 H         1 <0>         0.0591
     49 H17        -0.7335   -1.0599    7.0812 H         1 <0>         0.0671
     50 H18         1.1133   -1.6600    8.6034 H         1 <0>         0.0620
     51 H19         0.0725   -2.8677    9.3949 H         1 <0>         0.0572
     52 H20         1.6556   -3.3499    8.7393 H         1 <0>         0.0657
     53 H21         2.1869   -2.7277    3.3944 H         1 <0>         0.0731
     54 H22         3.2675   -2.8036    4.8067 H         1 <0>         0.0650
     55 H23         2.8986   -4.2827    3.8879 H         1 <0>         0.0631
     56 H24        -0.9643   -5.5958   -1.1074 H         1 <0>         0.1450
     57 H25        -2.7210   -7.2803   -1.4312 H         1 <0>         0.1462
     58 H26        -4.0238   -6.3631    3.9143 H         1 <0>         0.0450
     59 H27        -5.0585   -7.2769    2.7907 H         1 <0>         0.0521
     60 H28        -4.6617   -7.9560    4.3874 H         1 <0>         0.0975
     61 H29        -3.6156   -9.4982    0.3666 H         1 <0>         0.3929
@<TRIPOS>BOND
     1    1    2 1
     2    1   33 1
     3    1   34 1
     4    1   35 1
     5    2    7 ar
     6    2    3 ar
     7    3    4 ar
     8    3   36 1
     9    4    5 ar
    10    4   37 1
    11    5    6 ar
    12    5   38 1
    13    6    7 ar
    14    6    8 1
    15    7   39 1
    16    8    9 2
    17    8   40 1
    18    9   32 1
    19    9   10 1
    20   10   15 1
    21   10   11 2
    22   11   12 1
    23   11   23 1
    24   12   13 2
    25   12   41 1
    26   13   14 1
    27   13   42 1
    28   14   19 1
    29   14   15 1
    30   14   43 1
    31   15   16 1
    32   15   44 1
    33   16   17 2
    34   16   22 1
    35   17   18 1
    36   17   45 1
    37   18   19 1
    38   18   20 1
    39   18   21 1
    40   19   46 1
    41   20   47 1
    42   20   48 1
    43   20   49 1
    44   21   50 1
    45   21   51 1
    46   21   52 1
    47   22   53 1
    48   22   54 1
    49   22   55 1
    50   23   28 ar
    51   23   24 ar
    52   24   25 ar
    53   24   32 1
    54   25   26 ar
    55   25   56 1
    56   26   27 ar
    57   26   57 1
    58   27   28 ar
    59   27   31 1
    60   28   29 1
    61   29   30 1
    62   30   58 1
    63   30   59 1
    64   30   60 1
    65   31   61 1
@<TRIPOS>MOLECULE
CHEMBL232760__1
   62    66     0     0     0
SMALL
USER_CHARGES

@<TRIPOS>ATOM
      1 C1         -1.7308   -2.7562   -2.3753 C.3       1 <0>        -0.1177
      2 C2         -0.8570   -2.2470   -1.2580 C.ar      1 <0>        -0.0902
      3 C3         -0.1013   -1.1012   -1.4400 C.ar      1 <0>        -0.1050
      4 C4          0.7046   -0.6248   -0.4204 C.ar      1 <0>        -0.1186
      5 C5          0.7611   -1.2889    0.7863 C.ar      1 <0>        -0.1056
      6 C6          0.0003   -2.4483    0.9789 C.ar      1 <0>        -0.0708
      7 C7         -0.8167   -2.9201   -0.0560 C.ar      1 <0>        -0.0815
      8 C8          0.0542   -3.1623    2.2609 C.2       1 <0>        -0.0824
      9 C9         -0.1485   -4.3949    2.2987 C.2       1 <0>         0.0849
     10 C10        -0.2702   -5.1966    3.4489 C.2       1 <0>        -0.0848
     11 C11         0.6095   -6.3633    3.4048 C.2       1 <0>        -0.0165
     12 C12         0.8884   -7.0207    4.6636 C.2       1 <0>        -0.0302
     13 C13        -0.0257   -6.9082    5.6922 C.2       1 <0>        -0.2569
     14 C14        -1.2358   -6.1855    5.5222 C.3       1 <0>         0.0855
     15 C15        -0.9933   -4.9127    4.6032 C.3       1 <0>        -0.0153
     16 C16        -2.3937   -4.2594    4.4717 C.2       1 <0>        -0.0859
     17 C17        -3.3716   -4.4981    5.3547 C.2       1 <0>        -0.1893
     18 C18        -3.1067   -5.2391    6.6513 C.3       1 <0>         0.0768
     19 N1         -1.7477   -5.6792    6.7728 N.4       1 <0>        -0.4684
     20 C19        -4.0858   -6.4328    6.6838 C.3       1 <0>        -0.1667
     21 C20        -3.5125   -4.3017    7.8076 C.3       1 <0>        -0.1640
     22 C21        -2.7800   -3.5492    3.2547 C.3       1 <0>        -0.1417
     23 C22         1.0451   -6.8662    2.1277 C.ar      1 <0>        -0.0943
     24 C23         0.5505   -6.2535    0.9191 C.ar      1 <0>         0.1133
     25 C24         0.8685   -6.6590   -0.3303 C.ar      1 <0>        -0.1023
     26 C25         1.7674   -7.7900   -0.4290 C.ar      1 <0>        -0.0918
     27 C26         2.1642   -8.4678    0.7548 C.ar      1 <0>         0.0713
     28 C27         1.7594   -7.9731    2.0213 C.ar      1 <0>         0.1257
     29 O1          2.3417   -8.6245    3.0953 O.3       1 <0>        -0.3319
     30 C28         1.5588   -9.6255    3.7488 C.3       1 <0>         0.0263
     31 O2          2.9938   -9.5190    0.6298 O.3       1 <0>        -0.4768
     32 O3         -0.2852   -5.0921    1.0420 O.3       1 <0>        -0.2674
     33 H1         -2.7200   -2.3052   -2.2972 H         1 <0>         0.0721
     34 H2         -1.2854   -2.4915   -3.3343 H         1 <0>         0.0695
     35 H3         -1.8189   -3.8402   -2.3025 H         1 <0>         0.0666
     36 H4         -0.1407   -0.5763   -2.3830 H         1 <0>         0.1250
     37 H5          1.2911    0.2695   -0.5709 H         1 <0>         0.1266
     38 H6          1.3907   -0.9161    1.5807 H         1 <0>         0.1230
     39 H7         -1.4104   -3.8111    0.0859 H         1 <0>         0.1336
     40 H8          0.2690   -2.6222    3.1712 H         1 <0>         0.1395
     41 H9          1.8051   -7.5421    4.8280 H         1 <0>         0.1642
     42 H10         0.2642   -7.3741    6.7087 H         1 <0>         0.1658
     43 H11        -1.9544   -6.7718    4.9968 H         1 <0>         0.1499
     44 H12        -0.4220   -4.1356    5.3011 H         1 <0>         0.1146
     45 H13        -4.3170   -4.0451    5.0614 H         1 <0>         0.1649
     46 H14        -1.7485   -6.5009    7.4397 H         1 <0>         0.4411
     47 H15        -3.9027   -7.0765    5.8234 H         1 <0>         0.0791
     48 H16        -3.9353   -7.0014    7.6015 H         1 <0>         0.0841
     49 H17        -5.1107   -6.0631    6.6494 H         1 <0>         0.1084
     50 H18        -4.5699   -4.0523    7.7191 H         1 <0>         0.1091
     51 H19        -3.3356   -4.8018    8.7599 H         1 <0>         0.0840
     52 H20        -2.9187   -3.3889    7.7608 H         1 <0>         0.0812
     53 H21        -2.7040   -4.2228    2.4012 H         1 <0>         0.0856
     54 H22        -3.8074   -3.1977    3.3498 H         1 <0>         0.0783
     55 H23        -2.1169   -2.6971    3.1053 H         1 <0>         0.0854
     56 H24         0.5199   -6.2505   -1.1608 H         1 <0>         0.1418
     57 H25         1.9940   -8.2056   -1.3852 H         1 <0>         0.1521
     58 H26         2.1316  -10.0559    4.5702 H         1 <0>         0.1040
     59 H27         0.6460   -9.1755    4.1391 H         1 <0>         0.0470
     60 H28         1.3016  -10.4087    3.0356 H         1 <0>         0.0589
     61 H29         3.9316   -9.2868    0.6693 H         1 <0>         0.3995
     62 H30        -1.2138   -4.9837    7.1532 H         1 <0>         0.4177
@<TRIPOS>BOND
     1    1    2 1
     2    1   33 1
     3    1   34 1
     4    1   35 1
     5    2    7 ar
     6    2    3 ar
     7    3    4 ar
     8    3   36 1
     9    4    5 ar
    10    4   37 1
    11    5    6 ar
    12    5   38 1
    13    6    7 ar
    14    6    8 1
    15    7   39 1
    16    8    9 2
    17    8   40 1
    18    9   32 1
    19    9   10 1
    20   10   15 1
    21   10   11 2
    22   11   12 1
    23   11   23 1
    24   12   13 2
    25   12   41 1
    26   13   14 1
    27   13   42 1
    28   14   19 1
    29   14   15 1
    30   14   43 1
    31   15   16 1
    32   15   44 1
    33   16   17 2
    34   16   22 1
    35   17   18 1
    36   17   45 1
    37   18   19 1
    38   18   20 1
    39   18   21 1
    40   19   46 1
    41   19   62 1
    42   20   47 1
    43   20   48 1
    44   20   49 1
    45   21   50 1
    46   21   51 1
    47   21   52 1
    48   22   53 1
    49   22   54 1
    50   22   55 1
    51   23   28 ar
    52   23   24 ar
    53   24   25 ar
    54   24   32 1
    55   25   26 ar
    56   25   56 1
    57   26   27 ar
    58   26   57 1
    59   27   28 ar
    60   27   31 1
    61   28   29 1
    62   29   30 1
    63   30   58 1
    64   30   59 1
    65   30   60 1
    66   31   61 1
@<TRIPOS>MOLECULE
CHEMBL232760__2
   61    65     0     0     0
SMALL
USER_CHARGES

@<TRIPOS>ATOM
      1 C1          1.1867   -2.5459   -2.5021 C.3       1 <0>        -0.1147
      2 C2          1.2826   -1.8617   -1.1628 C.ar      1 <0>        -0.0864
      3 C3          1.4828   -0.4931   -1.0996 C.ar      1 <0>        -0.1264
      4 C4          1.5724    0.1454    0.1252 C.ar      1 <0>        -0.1156
      5 C5          1.4628   -0.5778    1.2937 C.ar      1 <0>        -0.1212
      6 C6          1.2603   -1.9621    1.2390 C.ar      1 <0>        -0.0365
      7 C7          1.1652   -2.5992   -0.0045 C.ar      1 <0>        -0.1185
      8 C8          1.1424   -2.7406    2.4784 C.2       1 <0>        -0.1705
      9 C9          1.1194   -4.1007    2.4282 C.2       1 <0>         0.1165
     10 C10         0.7902   -4.8209    3.5946 C.2       1 <0>        -0.1112
     11 C11         0.7826   -6.1879    3.5574 C.2       1 <0>         0.0067
     12 C12         0.4052   -6.9527    4.7513 C.2       1 <0>        -0.1538
     13 C13        -0.2111   -6.3427    5.7580 C.2       1 <0>        -0.1116
     14 C14        -0.5609   -4.8835    5.6859 C.3       1 <0>         0.1172
     15 C15         0.4699   -4.1056    4.8780 C.3       1 <0>        -0.0292
     16 C16         1.7240   -3.9051    5.6788 C.2       1 <0>        -0.1094
     17 C17         1.7872   -4.1104    6.9594 C.2       1 <0>        -0.1765
     18 C18         0.6136   -4.5757    7.7726 C.3       1 <0>         0.1389
     19 N1         -0.6368   -4.3257    7.0441 N.3       1 <0>        -0.6592
     20 C19         0.5860   -3.8193    9.1023 C.3       1 <0>        -0.1393
     21 C20         0.7494   -6.0746    8.0477 C.3       1 <0>        -0.1473
     22 C21         2.9675   -3.4445    4.9629 C.3       1 <0>        -0.1252
     23 C22         1.1555   -6.8569    2.2978 C.ar      1 <0>        -0.1264
     24 C23         1.4636   -6.0655    1.1804 C.ar      1 <0>         0.1270
     25 C24         1.8179   -6.6791   -0.0111 C.ar      1 <0>        -0.1279
     26 C25         1.8643   -8.0583   -0.0979 C.ar      1 <0>        -0.0880
     27 C26         1.5575   -8.8453    1.0017 C.ar      1 <0>         0.0669
     28 C27         1.2013   -8.2491    2.2056 C.ar      1 <0>         0.1247
     29 O1          0.8990   -9.0164    3.2859 O.3       1 <0>        -0.3234
     30 C28        -0.4682   -9.3995    3.4475 C.3       1 <0>         0.0319
     31 O2          1.6051  -10.2015    0.9021 O.3       1 <0>        -0.4862
     32 O3          1.4070   -4.7160    1.2623 O.3       1 <0>        -0.2104
     33 H1          0.1474   -2.5578   -2.8305 H         1 <0>         0.0694
     34 H2          1.7917   -2.0057   -3.2303 H         1 <0>         0.0660
     35 H3          1.5517   -3.5693   -2.4143 H         1 <0>         0.0646
     36 H4          1.5699    0.0794   -2.0112 H         1 <0>         0.1189
     37 H5          1.7289    1.2133    0.1656 H         1 <0>         0.1210
     38 H6          1.5333   -0.0781    2.2486 H         1 <0>         0.1201
     39 H7          1.0044   -3.6659   -0.0556 H         1 <0>         0.1431
     40 H8          1.0740   -2.2341    3.4298 H         1 <0>         0.1463
     41 H9          0.6274   -8.0079    4.8115 H         1 <0>         0.1543
     42 H10        -0.4656   -6.9060    6.6437 H         1 <0>         0.1435
     43 H11        -1.5322   -4.7750    5.2034 H         1 <0>         0.0997
     44 H12         0.0605   -3.1240    4.6396 H         1 <0>         0.0969
     45 H13         2.7272   -3.9390    7.4629 H         1 <0>         0.1120
     46 H14        -0.8499   -3.3398    7.0188 H         1 <0>         0.3474
     47 H15         0.4952   -2.7501    8.9102 H         1 <0>         0.0552
     48 H16        -0.2654   -4.1556    9.6940 H         1 <0>         0.0677
     49 H17         1.5083   -4.0131    9.6498 H         1 <0>         0.0639
     50 H18         1.4131   -6.2293    8.8984 H         1 <0>         0.0587
     51 H19        -0.2318   -6.4933    8.2716 H         1 <0>         0.0722
     52 H20         1.1635   -6.5692    7.1691 H         1 <0>         0.0700
     53 H21         3.0026   -2.3551    4.9599 H         1 <0>         0.0682
     54 H22         3.8471   -3.8350    5.4748 H         1 <0>         0.0624
     55 H23         2.9523   -3.8104    3.9363 H         1 <0>         0.0673
     56 H24         2.0584   -6.0774   -0.8752 H         1 <0>         0.1465
     57 H25         2.1415   -8.5267   -1.0306 H         1 <0>         0.1486
     58 H26        -1.0871   -8.5070    3.5398 H         1 <0>         0.0527
     59 H27        -0.7890   -9.9759    2.5798 H         1 <0>         0.0546
     60 H28        -0.5713  -10.0077    4.3461 H         1 <0>         0.1003
     61 H29         2.4674  -10.5817    1.1185 H         1 <0>         0.3938
@<TRIPOS>BOND
     1    1    2 1
     2    1   33 1
     3    1   34 1
     4    1   35 1
     5    2    7 ar
     6    2    3 ar
     7    3    4 ar
     8    3   36 1
     9    4    5 ar
    10    4   37 1
    11    5    6 ar
    12    5   38 1
    13    6    7 ar
    14    6    8 1
    15    7   39 1
    16    8    9 2
    17    8   40 1
    18    9   32 1
    19    9   10 1
    20   10   15 1
    21   10   11 2
    22   11   12 1
    23   11   23 1
    24   12   13 2
    25   12   41 1
    26   13   14 1
    27   13   42 1
    28   14   19 1
    29   14   15 1
    30   14   43 1
    31   15   16 1
    32   15   44 1
    33   16   17 2
    34   16   22 1
    35   17   18 1
    36   17   45 1
    37   18   19 1
    38   18   20 1
    39   18   21 1
    40   19   46 1
    41   20   47 1
    42   20   48 1
    43   20   49 1
    44   21   50 1
    45   21   51 1
    46   21   52 1
    47   22   53 1
    48   22   54 1
    49   22   55 1
    50   23   28 ar
    51   23   24 ar
    52   24   25 ar
    53   24   32 1
    54   25   26 ar
    55   25   56 1
    56   26   27 ar
    57   26   57 1
    58   27   28 ar
    59   27   31 1
    60   28   29 1
    61   29   30 1
    62   30   58 1
    63   30   59 1
    64   30   60 1
    65   31   61 1
@<TRIPOS>MOLECULE
CHEMBL232760__3
   62    66     0     0     0
SMALL
USER_CHARGES

@<TRIPOS>ATOM
      1 C1          1.2660   -2.6051   -2.5140 C.3       1 <0>        -0.1183
      2 C2          1.3300   -1.9140   -1.1763 C.ar      1 <0>        -0.0849
      3 C3          1.5421   -0.5471   -1.1149 C.ar      1 <0>        -0.1130
      4 C4          1.6026    0.0977    0.1084 C.ar      1 <0>        -0.1157
      5 C5          1.4519   -0.6176    1.2772 C.ar      1 <0>        -0.1144
      6 C6          1.2371   -2.0001    1.2244 C.ar      1 <0>        -0.0567
      7 C7          1.1717   -2.6435   -0.0178 C.ar      1 <0>        -0.1110
      8 C8          1.0755   -2.7701    2.4641 C.2       1 <0>        -0.1411
      9 C9          1.0401   -4.1302    2.4208 C.2       1 <0>         0.0948
     10 C10         0.7220   -4.8420    3.5956 C.2       1 <0>        -0.0982
     11 C11         0.6990   -6.2089    3.5643 C.2       1 <0>        -0.0029
     12 C12         0.3332   -6.9647    4.7676 C.2       1 <0>        -0.0670
     13 C13        -0.2601   -6.3439    5.7815 C.2       1 <0>        -0.2147
     14 C14        -0.5957   -4.8815    5.7079 C.3       1 <0>         0.0770
     15 C15         0.4305   -4.1178    4.8810 C.3       1 <0>        -0.0219
     16 C16         1.7005   -3.9348    5.6624 C.2       1 <0>        -0.0810
     17 C17         1.7764   -4.1523    6.9409 C.2       1 <0>        -0.1799
     18 C18         0.6054   -4.6112    7.7612 C.3       1 <0>         0.1026
     19 N1         -0.6513   -4.3162    7.0631 N.4       1 <0>        -0.4968
     20 C19         0.6174   -3.8887    9.1099 C.3       1 <0>        -0.1725
     21 C20         0.7120   -6.1191    7.9973 C.3       1 <0>        -0.1835
     22 C21         2.9381   -3.4803    4.9325 C.3       1 <0>        -0.1360
     23 C22         1.0443   -6.8871    2.3017 C.ar      1 <0>        -0.1389
     24 C23         1.3443   -6.1036    1.1766 C.ar      1 <0>         0.1323
     25 C24         1.6728   -6.7260   -0.0179 C.ar      1 <0>        -0.1237
     26 C25         1.7014   -8.1060   -0.0997 C.ar      1 <0>        -0.0765
     27 C26         1.4029   -8.8851    1.0077 C.ar      1 <0>         0.0749
     28 C27         1.0720   -8.2801    2.2143 C.ar      1 <0>         0.1241
     29 O1          0.7772   -9.0397    3.3022 O.3       1 <0>        -0.3259
     30 C28        -0.5918   -9.4056    3.4863 C.3       1 <0>         0.0275
     31 O2          1.4338  -10.2421    0.9131 O.3       1 <0>        -0.4842
     32 O3          1.3050   -4.7533    1.2539 O.3       1 <0>        -0.2035
     33 H1          0.2366   -2.6085   -2.8723 H         1 <0>         0.0724
     34 H2          1.8973   -2.0752   -3.2273 H         1 <0>         0.0697
     35 H3          1.6179   -3.6315   -2.4099 H         1 <0>         0.0658
     36 H4          1.6613    0.0192   -2.0268 H         1 <0>         0.1240
     37 H5          1.7687    1.1641    0.1474 H         1 <0>         0.1253
     38 H6          1.4998   -0.1131    2.2309 H         1 <0>         0.1208
     39 H7          1.0016   -3.7089   -0.0676 H         1 <0>         0.1451
     40 H8          0.9848   -2.2574    3.4103 H         1 <0>         0.1443
     41 H9          0.5450   -8.0220    4.8288 H         1 <0>         0.1735
     42 H10        -0.5057   -6.9004    6.6740 H         1 <0>         0.1636
     43 H11        -1.5718   -4.7660    5.2365 H         1 <0>         0.1520
     44 H12         0.0300   -3.1316    4.6463 H         1 <0>         0.1267
     45 H13         2.7238   -3.9966    7.4356 H         1 <0>         0.1532
     46 H14        -0.7792   -3.3170    7.0064 H         1 <0>         0.4309
     47 H15         0.5490   -2.8132    8.9465 H         1 <0>         0.0829
     48 H16        -0.2319   -4.2202    9.7072 H         1 <0>         0.0846
     49 H17         1.5437   -4.1179    9.6366 H         1 <0>         0.1081
     50 H18         1.3721   -6.3086    8.8436 H         1 <0>         0.1019
     51 H19        -0.2772   -6.5243    8.2102 H         1 <0>         0.0836
     52 H20         1.1170   -6.5986    7.1061 H         1 <0>         0.1036
     53 H21         2.9838   -2.3912    4.9379 H         1 <0>         0.0855
     54 H22         3.8211   -3.8834    5.4286 H         1 <0>         0.0787
     55 H23         2.9047   -3.8375    3.9033 H         1 <0>         0.0797
     56 H24         1.9070   -6.1307   -0.8880 H         1 <0>         0.1517
     57 H25         1.9583   -8.5813   -1.0348 H         1 <0>         0.1549
     58 H26        -0.6884  -10.0092    4.3888 H         1 <0>         0.1038
     59 H27        -1.1985   -8.5054    3.5846 H         1 <0>         0.0481
     60 H28        -0.9328   -9.9815    2.6259 H         1 <0>         0.0620
     61 H29         2.2952  -10.6311    1.1178 H         1 <0>         0.3990
     62 H30        -1.4219   -4.7272    7.5683 H         1 <0>         0.4334
@<TRIPOS>BOND
     1    1    2 1
     2    1   33 1
     3    1   34 1
     4    1   35 1
     5    2    7 ar
     6    2    3 ar
     7    3    4 ar
     8    3   36 1
     9    4    5 ar
    10    4   37 1
    11    5    6 ar
    12    5   38 1
    13    6    7 ar
    14    6    8 1
    15    7   39 1
    16    8    9 2
    17    8   40 1
    18    9   32 1
    19    9   10 1
    20   10   15 1
    21   10   11 2
    22   11   12 1
    23   11   23 1
    24   12   13 2
    25   12   41 1
    26   13   14 1
    27   13   42 1
    28   14   19 1
    29   14   15 1
    30   14   43 1
    31   15   16 1
    32   15   44 1
    33   16   17 2
    34   16   22 1
    35   17   18 1
    36   17   45 1
    37   18   19 1
    38   18   20 1
    39   18   21 1
    40   19   46 1
    41   19   62 1
    42   20   47 1
    43   20   48 1
    44   20   49 1
    45   21   50 1
    46   21   51 1
    47   21   52 1
    48   22   53 1
    49   22   54 1
    50   22   55 1
    51   23   28 ar
    52   23   24 ar
    53   24   25 ar
    54   24   32 1
    55   25   26 ar
    56   25   56 1
    57   26   27 ar
    58   26   57 1
    59   27   28 ar
    60   27   31 1
    61   28   29 1
    62   29   30 1
    63   30   58 1
    64   30   59 1
    65   30   60 1
    66   31   61 1
@<TRIPOS>MOLECULE
CHEMBL232760__4
   61    65     0     0     0
SMALL
USER_CHARGES

@<TRIPOS>ATOM
      1 C1         -1.4288   -2.9344   -2.6930 C.3       1 <0>        -0.1147
      2 C2         -0.9967   -2.2058   -1.4467 C.ar      1 <0>        -0.0872
      3 C3         -0.7560   -0.8430   -1.4922 C.ar      1 <0>        -0.1254
      4 C4         -0.3587   -0.1638   -0.3534 C.ar      1 <0>        -0.1161
      5 C5         -0.1993   -0.8405    0.8371 C.ar      1 <0>        -0.1193
      6 C6         -0.4405   -2.2185    0.8921 C.ar      1 <0>        -0.0382
      7 C7         -0.8476   -2.8967   -0.2636 C.ar      1 <0>        -0.1182
      8 C8         -0.2733   -2.9475    2.1557 C.2       1 <0>        -0.1646
      9 C9         -0.3372   -4.3071    2.1707 C.2       1 <0>         0.1137
     10 C10        -0.3805   -4.9745    3.4119 C.2       1 <0>        -0.1054
     11 C11        -0.4634   -6.3392    3.4354 C.2       1 <0>        -0.0029
     12 C12        -0.4709   -7.0523    4.7177 C.2       1 <0>        -0.1363
     13 C13        -0.0986   -6.4208    5.8259 C.2       1 <0>        -0.1637
     14 C14         0.3640   -4.9920    5.7884 C.3       1 <0>         0.1184
     15 C15        -0.3583   -4.2040    4.7030 C.3       1 <0>         0.0132
     16 C16        -1.7609   -3.8822    5.1312 C.2       1 <0>        -0.0996
     17 C17        -2.1737   -4.0061    6.3560 C.2       1 <0>        -0.1445
     18 C18        -1.2926   -4.4900    7.4718 C.3       1 <0>         0.1419
     19 N1          0.1205   -4.3593    7.0931 N.3       1 <0>        -0.6638
     20 C19        -1.5606   -3.6575    8.7272 C.3       1 <0>        -0.1344
     21 C20        -1.6050   -5.9589    7.7642 C.3       1 <0>        -0.1855
     22 C21        -2.7349   -3.3921    4.0909 C.3       1 <0>        -0.1293
     23 C22        -0.5391   -7.0592    2.1511 C.ar      1 <0>        -0.1221
     24 C23        -0.4832   -6.3193    0.9599 C.ar      1 <0>         0.1280
     25 C24        -0.5551   -6.9810   -0.2561 C.ar      1 <0>        -0.1276
     26 C25        -0.6785   -8.3575   -0.2942 C.ar      1 <0>        -0.0876
     27 C26        -0.7306   -9.0942    0.8795 C.ar      1 <0>         0.0628
     28 C27        -0.6609   -8.4492    2.1086 C.ar      1 <0>         0.1228
     29 O1         -0.7104   -9.1671    3.2616 O.3       1 <0>        -0.3182
     30 C28         0.5198   -9.7179    3.7362 C.3       1 <0>         0.0303
     31 O2         -0.8504  -10.4486    0.8278 O.3       1 <0>        -0.4810
     32 O3         -0.3626   -4.9726    0.9972 O.3       1 <0>        -0.2095
     33 H1         -2.5166   -2.9244   -2.7610 H         1 <0>         0.0693
     34 H2         -1.0055   -2.4408   -3.5677 H         1 <0>         0.0658
     35 H3         -1.0769   -3.9652   -2.6517 H         1 <0>         0.0644
     36 H4         -0.8787   -0.3069   -2.4217 H         1 <0>         0.1186
     37 H5         -0.1728    0.8991   -0.3977 H         1 <0>         0.1212
     38 H6          0.1111   -0.3091    1.7247 H         1 <0>         0.1216
     39 H7         -1.0403   -3.9588   -0.2287 H         1 <0>         0.1435
     40 H8         -0.0996   -2.4049    3.0732 H         1 <0>         0.1498
     41 H9         -0.7784   -8.0867    4.7607 H         1 <0>         0.1504
     42 H10        -0.1286   -6.9440    6.7702 H         1 <0>         0.1349
     43 H11         1.4334   -4.9707    5.5782 H         1 <0>         0.0970
     44 H12         0.1699   -3.2643    4.5415 H         1 <0>         0.1029
     45 H13        -3.1978   -3.7491    6.5829 H         1 <0>         0.1134
     46 H14         0.7227   -4.7497    7.8023 H         1 <0>         0.3488
     47 H15        -2.6062   -3.7630    9.0167 H         1 <0>         0.0615
     48 H16        -0.9219   -4.0073    9.5383 H         1 <0>         0.0568
     49 H17        -1.3447   -2.6092    8.5210 H         1 <0>         0.0652
     50 H18        -1.8283   -6.4757    6.8309 H         1 <0>         0.0743
     51 H19        -0.7430   -6.4258    8.2407 H         1 <0>         0.0594
     52 H20        -2.4662   -6.0218    8.4294 H         1 <0>         0.0613
     53 H21        -3.2511   -4.2433    3.6469 H         1 <0>         0.0624
     54 H22        -3.4630   -2.7293    4.5586 H         1 <0>         0.0631
     55 H23        -2.1952   -2.8493    3.3149 H         1 <0>         0.0748
     56 H24        -0.5150   -6.4189   -1.1774 H         1 <0>         0.1470
     57 H25        -0.7345   -8.8637   -1.2466 H         1 <0>         0.1485
     58 H26         0.9276  -10.3959    2.9864 H         1 <0>         0.0478
     59 H27         1.2304   -8.9127    3.9229 H         1 <0>         0.0525
     60 H28         0.3398  -10.2654    4.6614 H         1 <0>         0.1009
     61 H29        -0.0051  -10.9176    0.8033 H         1 <0>         0.3866
@<TRIPOS>BOND
     1    1    2 1
     2    1   33 1
     3    1   34 1
     4    1   35 1
     5    2    7 ar
     6    2    3 ar
     7    3    4 ar
     8    3   36 1
     9    4    5 ar
    10    4   37 1
    11    5    6 ar
    12    5   38 1
    13    6    7 ar
    14    6    8 1
    15    7   39 1
    16    8    9 2
    17    8   40 1
    18    9   32 1
    19    9   10 1
    20   10   15 1
    21   10   11 2
    22   11   12 1
    23   11   23 1
    24   12   13 2
    25   12   41 1
    26   13   14 1
    27   13   42 1
    28   14   19 1
    29   14   15 1
    30   14   43 1
    31   15   16 1
    32   15   44 1
    33   16   17 2
    34   16   22 1
    35   17   18 1
    36   17   45 1
    37   18   19 1
    38   18   20 1
    39   18   21 1
    40   19   46 1
    41   20   47 1
    42   20   48 1
    43   20   49 1
    44   21   50 1
    45   21   51 1
    46   21   52 1
    47   22   53 1
    48   22   54 1
    49   22   55 1
    50   23   28 ar
    51   23   24 ar
    52   24   25 ar
    53   24   32 1
    54   25   26 ar
    55   25   56 1
    56   26   27 ar
    57   26   57 1
    58   27   28 ar
    59   27   31 1
    60   28   29 1
    61   29   30 1
    62   30   58 1
    63   30   59 1
    64   30   60 1
    65   31   61 1
@<TRIPOS>MOLECULE
CHEMBL232760__5
   62    66     0     0     0
SMALL
USER_CHARGES

@<TRIPOS>ATOM
      1 C1         -1.0485   -2.2394   -2.0175 C.3       1 <0>        -0.1184
      2 C2         -0.5980   -1.6029   -0.7279 C.ar      1 <0>        -0.0847
      3 C3         -0.3085   -0.2494   -0.6903 C.ar      1 <0>        -0.1127
      4 C4          0.1061    0.3453    0.4889 C.ar      1 <0>        -0.1156
      5 C5          0.2342   -0.4070    1.6370 C.ar      1 <0>        -0.1143
      6 C6         -0.0564   -1.7762    1.6079 C.ar      1 <0>        -0.0566
      7 C7         -0.4806   -2.3686    0.4120 C.ar      1 <0>        -0.1103
      8 C8          0.0772   -2.5854    2.8259 C.2       1 <0>        -0.1429
      9 C9         -0.0304   -3.9407    2.7579 C.2       1 <0>         0.0979
     10 C10        -0.1232   -4.6786    3.9558 C.2       1 <0>        -0.0968
     11 C11        -0.2465   -6.0391    3.8958 C.2       1 <0>        -0.0049
     12 C12        -0.3072   -6.8263    5.1325 C.2       1 <0>        -0.0649
     13 C13         0.0541   -6.2728    6.2853 C.2       1 <0>        -0.2148
     14 C14         0.5577   -4.8591    6.3444 C.3       1 <0>         0.0769
     15 C15        -0.1095   -3.9860    5.2905 C.3       1 <0>        -0.0215
     16 C16        -1.5128   -3.6453    5.7034 C.2       1 <0>        -0.0786
     17 C17        -1.9585   -3.8424    6.9077 C.2       1 <0>        -0.1816
     18 C18        -1.1171   -4.4336    8.0020 C.3       1 <0>         0.1024
     19 N1          0.3068   -4.2968    7.6783 N.4       1 <0>        -0.4963
     20 C19        -1.4102   -3.7061    9.3156 C.3       1 <0>        -0.1724
     21 C20        -1.4606   -5.9162    8.1603 C.3       1 <0>        -0.1822
     22 C21        -2.4427   -3.0496    4.6780 C.3       1 <0>        -0.1381
     23 C22        -0.3117   -6.6793    2.5693 C.ar      1 <0>        -0.1365
     24 C23        -0.2074   -5.8722    1.4261 C.ar      1 <0>         0.1338
     25 C24        -0.2686   -6.4585    0.1713 C.ar      1 <0>        -0.1238
     26 C25        -0.4292   -7.8262    0.0482 C.ar      1 <0>        -0.0754
     27 C26        -0.5300   -8.6289    1.1744 C.ar      1 <0>         0.0715
     28 C27        -0.4712   -8.0602    2.4410 C.ar      1 <0>         0.1241
     29 O1         -0.5678   -8.8434    3.5477 O.3       1 <0>        -0.3212
     30 C28         0.6402   -9.4328    4.0328 C.3       1 <0>         0.0252
     31 O2         -0.6871   -9.9738    1.0392 O.3       1 <0>        -0.4784
     32 O3         -0.0505   -4.5339    1.5462 O.3       1 <0>        -0.2036
     33 H1         -2.1349   -2.1860   -2.0888 H         1 <0>         0.0726
     34 H2         -0.6026   -1.7096   -2.8593 H         1 <0>         0.0698
     35 H3         -0.7339   -3.2828   -2.0370 H         1 <0>         0.0658
     36 H4         -0.4064    0.3456   -1.5862 H         1 <0>         0.1240
     37 H5          0.3302    1.4016    0.5094 H         1 <0>         0.1253
     38 H6          0.5582    0.0585    2.5561 H         1 <0>         0.1209
     39 H7         -0.7114   -3.4233    0.3820 H         1 <0>         0.1430
     40 H8          0.2610   -2.1053    3.7757 H         1 <0>         0.1444
     41 H9         -0.6448   -7.8518    5.1061 H         1 <0>         0.1730
     42 H10        -0.0160   -6.8496    7.1957 H         1 <0>         0.1630
     43 H11         1.6317   -4.8592    6.1582 H         1 <0>         0.1515
     44 H12         0.4518   -3.0562    5.1978 H         1 <0>         0.1259
     45 H13        -2.9789   -3.5687    7.1318 H         1 <0>         0.1531
     46 H14         0.8570   -4.7942    8.3624 H         1 <0>         0.4333
     47 H15        -2.4652   -3.8186    9.5657 H         1 <0>         0.1081
     48 H16        -0.8005   -4.1336   10.1116 H         1 <0>         0.0844
     49 H17        -1.1738   -2.6478    9.2054 H         1 <0>         0.0830
     50 H18        -1.6823   -6.3442    7.1827 H         1 <0>         0.1022
     51 H19        -0.6134   -6.4402    8.6028 H         1 <0>         0.0835
     52 H20        -2.3309   -6.0203    8.8083 H         1 <0>         0.1018
     53 H21        -2.9748   -3.8489    4.1621 H         1 <0>         0.0808
     54 H22        -3.1605   -2.3965    5.1743 H         1 <0>         0.0789
     55 H23        -1.8653   -2.4724    3.9558 H         1 <0>         0.0859
     56 H24        -0.1910   -5.8443   -0.7137 H         1 <0>         0.1521
     57 H25        -0.4768   -8.2732   -0.9337 H         1 <0>         0.1550
     58 H26         0.4227  -10.0313    4.9175 H         1 <0>         0.1054
     59 H27         1.0696  -10.0700    3.2597 H         1 <0>         0.0548
     60 H28         1.3497   -8.6467    4.2914 H         1 <0>         0.0501
     61 H29         0.1449  -10.4655    1.0052 H         1 <0>         0.3919
     62 H30         0.5615   -3.3205    7.6857 H         1 <0>         0.4308
@<TRIPOS>BOND
     1    1    2 1
     2    1   33 1
     3    1   34 1
     4    1   35 1
     5    2    7 ar
     6    2    3 ar
     7    3    4 ar
     8    3   36 1
     9    4    5 ar
    10    4   37 1
    11    5    6 ar
    12    5   38 1
    13    6    7 ar
    14    6    8 1
    15    7   39 1
    16    8    9 2
    17    8   40 1
    18    9   32 1
    19    9   10 1
    20   10   15 1
    21   10   11 2
    22   11   12 1
    23   11   23 1
    24   12   13 2
    25   12   41 1
    26   13   14 1
    27   13   42 1
    28   14   19 1
    29   14   15 1
    30   14   43 1
    31   15   16 1
    32   15   44 1
    33   16   17 2
    34   16   22 1
    35   17   18 1
    36   17   45 1
    37   18   19 1
    38   18   20 1
    39   18   21 1
    40   19   46 1
    41   19   62 1
    42   20   47 1
    43   20   48 1
    44   20   49 1
    45   21   50 1
    46   21   51 1
    47   21   52 1
    48   22   53 1
    49   22   54 1
    50   22   55 1
    51   23   28 ar
    52   23   24 ar
    53   24   25 ar
    54   24   32 1
    55   25   26 ar
    56   25   56 1
    57   26   27 ar
    58   26   57 1
    59   27   28 ar
    60   27   31 1
    61   28   29 1
    62   29   30 1
    63   30   58 1
    64   30   59 1
    65   30   60 1
    66   31   61 1
@<TRIPOS>MOLECULE
CHEMBL232760__6
   61    65     0     0     0
SMALL
USER_CHARGES

@<TRIPOS>ATOM
      1 C1         -1.6066   -2.8310   -2.3533 C.3       1 <0>        -0.1153
      2 C2         -1.2013   -2.2039   -1.0443 C.ar      1 <0>        -0.0898
      3 C3         -0.9028   -0.8529   -0.9891 C.ar      1 <0>        -0.1183
      4 C4         -0.5295   -0.2668    0.2080 C.ar      1 <0>        -0.1187
      5 C5         -0.4520   -1.0251    1.3566 C.ar      1 <0>        -0.1130
      6 C6         -0.7521   -2.3918    1.3099 C.ar      1 <0>        -0.0492
      7 C7         -1.1344   -2.9755    0.0956 C.ar      1 <0>        -0.0977
      8 C8         -0.6722   -3.2074    2.5283 C.2       1 <0>        -0.1127
      9 C9         -0.5532   -4.5502    2.4359 C.2       1 <0>         0.0947
     10 C10        -0.5853   -5.4102    3.5317 C.2       1 <0>        -0.0968
     11 C11         0.2825   -6.4991    3.4881 C.2       1 <0>        -0.0188
     12 C12         0.4177   -7.3508    4.6761 C.2       1 <0>        -0.1164
     13 C13         0.1172   -6.8506    5.8856 C.2       1 <0>        -0.1234
     14 C14        -0.4091   -5.4375    5.9368 C.3       1 <0>         0.1225
     15 C15        -1.4085   -5.3168    4.7750 C.3       1 <0>        -0.0318
     16 C16        -2.3144   -4.1557    4.9293 C.2       1 <0>        -0.1029
     17 C17        -2.3206   -3.4109    6.0040 C.2       1 <0>        -0.1802
     18 C18        -1.4831   -3.6974    7.2137 C.3       1 <0>         0.1452
     19 N1         -1.0299   -5.0952    7.2020 N.3       1 <0>        -0.6638
     20 C19        -2.3347   -3.4657    8.4667 C.3       1 <0>        -0.1404
     21 C20        -0.2861   -2.7509    7.2492 C.3       1 <0>        -0.1335
     22 C21        -3.3612   -3.8557    3.8783 C.3       1 <0>        -0.1214
     23 C22         1.0015   -6.7531    2.2297 C.ar      1 <0>        -0.1168
     24 C23         0.6250   -6.0206    1.0875 C.ar      1 <0>         0.1254
     25 C24         1.2555   -6.2442   -0.1224 C.ar      1 <0>        -0.1279
     26 C25         2.2670   -7.1828   -0.2148 C.ar      1 <0>        -0.0901
     27 C26         2.6566   -7.9017    0.9036 C.ar      1 <0>         0.0588
     28 C27         2.0318   -7.6879    2.1291 C.ar      1 <0>         0.1236
     29 O1          2.4539   -8.3904    3.2133 O.3       1 <0>        -0.3205
     30 C28         3.5820   -7.8736    3.9221 C.3       1 <0>         0.0367
     31 O2          3.6554   -8.8215    0.8067 O.3       1 <0>        -0.4813
     32 O3         -0.3503   -5.0796    1.1905 O.3       1 <0>        -0.2302
     33 H1         -2.6889   -2.7685   -2.4665 H         1 <0>         0.0701
     34 H2         -1.1242   -2.3011   -3.1748 H         1 <0>         0.0662
     35 H3         -1.2998   -3.8768   -2.3656 H         1 <0>         0.0659
     36 H4         -0.9612   -0.2532   -1.8854 H         1 <0>         0.1202
     37 H5         -0.2980    0.7875    0.2421 H         1 <0>         0.1223
     38 H6         -0.1602   -0.5663    2.2898 H         1 <0>         0.1213
     39 H7         -1.3721   -4.0281    0.0518 H         1 <0>         0.1385
     40 H8         -0.7085   -2.7340    3.4983 H         1 <0>         0.1419
     41 H9          0.7329   -8.3795    4.5908 H         1 <0>         0.1394
     42 H10         0.2435   -7.4271    6.7829 H         1 <0>         0.1368
     43 H11         0.4314   -4.7722    5.7331 H         1 <0>         0.0925
     44 H12        -2.0346   -6.2292    4.8102 H         1 <0>         0.0894
     45 H13        -2.9627   -2.5459    6.0190 H         1 <0>         0.1134
     46 H14        -1.7819   -5.7243    7.4386 H         1 <0>         0.3486
     47 H15        -3.1977   -4.1313    8.4477 H         1 <0>         0.0557
     48 H16        -1.7373   -3.6707    9.3551 H         1 <0>         0.0682
     49 H17        -2.6749   -2.4304    8.4886 H         1 <0>         0.0650
     50 H18        -0.6388   -1.7204    7.2907 H         1 <0>         0.0622
     51 H19         0.3192   -2.9635    8.1304 H         1 <0>         0.0668
     52 H20         0.3161   -2.8930    6.3519 H         1 <0>         0.0522
     53 H21        -4.2860   -4.3758    4.1277 H         1 <0>         0.0662
     54 H22        -3.5458   -2.7819    3.8454 H         1 <0>         0.0669
     55 H23        -3.0057   -4.1932    2.9047 H         1 <0>         0.0651
     56 H24         0.9604   -5.6862   -0.9991 H         1 <0>         0.1448
     57 H25         2.7544   -7.3544   -1.1624 H         1 <0>         0.1463
     58 H26         4.4633   -7.9147    3.2820 H         1 <0>         0.0452
     59 H27         3.3888   -6.8398    4.2084 H         1 <0>         0.0482
     60 H28         3.7544   -8.4722    4.8166 H         1 <0>         0.0999
     61 H29         4.5378   -8.4629    0.9732 H         1 <0>         0.3852
@<TRIPOS>BOND
     1    1    2 1
     2    1   33 1
     3    1   34 1
     4    1   35 1
     5    2    7 ar
     6    2    3 ar
     7    3    4 ar
     8    3   36 1
     9    4    5 ar
    10    4   37 1
    11    5    6 ar
    12    5   38 1
    13    6    7 ar
    14    6    8 1
    15    7   39 1
    16    8    9 2
    17    8   40 1
    18    9   32 1
    19    9   10 1
    20   10   15 1
    21   10   11 2
    22   11   12 1
    23   11   23 1
    24   12   13 2
    25   12   41 1
    26   13   14 1
    27   13   42 1
    28   14   19 1
    29   14   15 1
    30   14   43 1
    31   15   16 1
    32   15   44 1
    33   16   17 2
    34   16   22 1
    35   17   18 1
    36   17   45 1
    37   18   19 1
    38   18   20 1
    39   18   21 1
    40   19   46 1
    41   20   47 1
    42   20   48 1
    43   20   49 1
    44   21   50 1
    45   21   51 1
    46   21   52 1
    47   22   53 1
    48   22   54 1
    49   22   55 1
    50   23   28 ar
    51   23   24 ar
    52   24   25 ar
    53   24   32 1
    54   25   26 ar
    55   25   56 1
    56   26   27 ar
    57   26   57 1
    58   27   28 ar
    59   27   31 1
    60   28   29 1
    61   29   30 1
    62   30   58 1
    63   30   59 1
    64   30   60 1
    65   31   61 1
@<TRIPOS>MOLECULE
CHEMBL232760__7
   62    66     0     0     0
SMALL
USER_CHARGES

@<TRIPOS>ATOM
      1 C1         -1.6086   -2.8333   -2.3445 C.3       1 <0>        -0.1190
      2 C2         -1.1968   -2.2095   -1.0359 C.ar      1 <0>        -0.0878
      3 C3         -0.8958   -0.8592   -0.9792 C.ar      1 <0>        -0.1054
      4 C4         -0.5165   -0.2761    0.2174 C.ar      1 <0>        -0.1183
      5 C5         -0.4353   -1.0369    1.3642 C.ar      1 <0>        -0.1070
      6 C6         -0.7379   -2.4030    1.3160 C.ar      1 <0>        -0.0696
      7 C7         -1.1262   -2.9836    0.1022 C.ar      1 <0>        -0.0907
      8 C8         -0.6542   -3.2211    2.5324 C.2       1 <0>        -0.0826
      9 C9         -0.5366   -4.5626    2.4368 C.2       1 <0>         0.0705
     10 C10        -0.5619   -5.4294    3.5285 C.2       1 <0>        -0.0950
     11 C11         0.3287   -6.4997    3.4766 C.2       1 <0>        -0.0176
     12 C12         0.4681   -7.3725    4.6486 C.2       1 <0>        -0.0342
     13 C13         0.1395   -6.9049    5.8625 C.2       1 <0>        -0.2110
     14 C14        -0.4129   -5.5028    5.9391 C.3       1 <0>         0.0525
     15 C15        -1.3957   -5.3642    4.7656 C.3       1 <0>        -0.0071
     16 C16        -2.3029   -4.2042    4.9354 C.2       1 <0>        -0.0737
     17 C17        -2.3216   -3.4912    6.0319 C.2       1 <0>        -0.1888
     18 C18        -1.5041   -3.8166    7.2443 C.3       1 <0>         0.1010
     19 N1         -1.0614   -5.2166    7.2065 N.4       1 <0>        -0.4874
     20 C19        -2.3740   -3.6139    8.4902 C.3       1 <0>        -0.1733
     21 C20        -0.3030   -2.8792    7.3280 C.3       1 <0>        -0.1713
     22 C21        -3.3342   -3.8704    3.8796 C.3       1 <0>        -0.1327
     23 C22         1.0670   -6.7189    2.2226 C.ar      1 <0>        -0.1341
     24 C23         0.6676   -5.9987    1.0805 C.ar      1 <0>         0.1321
     25 C24         1.3086   -6.1973   -0.1274 C.ar      1 <0>        -0.1245
     26 C25         2.3571   -7.0952   -0.2160 C.ar      1 <0>        -0.0771
     27 C26         2.7747   -7.7955    0.9039 C.ar      1 <0>         0.0650
     28 C27         2.1364   -7.6086    2.1266 C.ar      1 <0>         0.1267
     29 O1          2.5846   -8.2894    3.2138 O.3       1 <0>        -0.3239
     30 C28         3.6863   -7.7224    3.9256 C.3       1 <0>         0.0338
     31 O2          3.8138   -8.6703    0.8115 O.3       1 <0>        -0.4786
     32 O3         -0.3381   -5.0902    1.1888 O.3       1 <0>        -0.2240
     33 H1         -2.6912   -2.7688   -2.4529 H         1 <0>         0.0733
     34 H2         -1.1288   -2.3026   -3.1668 H         1 <0>         0.0698
     35 H3         -1.3035   -3.8796   -2.3601 H         1 <0>         0.0673
     36 H4         -0.9570   -0.2575   -1.8740 H         1 <0>         0.1253
     37 H5         -0.2831    0.7778    0.2528 H         1 <0>         0.1265
     38 H6         -0.1388   -0.5804    2.2971 H         1 <0>         0.1215
     39 H7         -1.3659   -4.0357    0.0573 H         1 <0>         0.1395
     40 H8         -0.6867   -2.7497    3.5035 H         1 <0>         0.1394
     41 H9          0.8136   -8.3900    4.5454 H         1 <0>         0.1599
     42 H10         0.2600   -7.4997    6.7489 H         1 <0>         0.1555
     43 H11         0.4187   -4.8187    5.7708 H         1 <0>         0.1466
     44 H12        -2.0235   -6.2759    4.7758 H         1 <0>         0.1203
     45 H13        -2.9615   -2.6242    6.0645 H         1 <0>         0.1548
     46 H14        -1.8646   -5.8228    7.3277 H         1 <0>         0.4296
     47 H15        -3.2407   -4.2730    8.4394 H         1 <0>         0.0840
     48 H16        -1.7918   -3.8473    9.3817 H         1 <0>         0.0854
     49 H17        -2.7080   -2.5774    8.5354 H         1 <0>         0.1095
     50 H18        -0.6506   -1.8483    7.3951 H         1 <0>         0.1102
     51 H19         0.2865   -3.1221    8.2121 H         1 <0>         0.0855
     52 H20         0.3131   -2.9976    6.4367 H         1 <0>         0.0784
     53 H21        -4.2642   -4.3936    4.1019 H         1 <0>         0.0845
     54 H22        -3.5143   -2.7954    3.8747 H         1 <0>         0.0829
     55 H23        -2.9669   -4.1817    2.9017 H         1 <0>         0.0789
     56 H24         0.9937   -5.6531   -1.0061 H         1 <0>         0.1502
     57 H25         2.8509   -7.2506   -1.1630 H         1 <0>         0.1525
     58 H26         3.8817   -8.3114    4.8217 H         1 <0>         0.1025
     59 H27         4.5708   -7.7256    3.2886 H         1 <0>         0.0518
     60 H28         3.4467   -6.6976    4.2095 H         1 <0>         0.0453
     61 H29         4.6789   -8.2727    0.9808 H         1 <0>         0.3899
     62 H30        -0.4178   -5.3851    7.9703 H         1 <0>         0.4325
@<TRIPOS>BOND
     1    1    2 1
     2    1   33 1
     3    1   34 1
     4    1   35 1
     5    2    7 ar
     6    2    3 ar
     7    3    4 ar
     8    3   36 1
     9    4    5 ar
    10    4   37 1
    11    5    6 ar
    12    5   38 1
    13    6    7 ar
    14    6    8 1
    15    7   39 1
    16    8    9 2
    17    8   40 1
    18    9   32 1
    19    9   10 1
    20   10   15 1
    21   10   11 2
    22   11   12 1
    23   11   23 1
    24   12   13 2
    25   12   41 1
    26   13   14 1
    27   13   42 1
    28   14   19 1
    29   14   15 1
    30   14   43 1
    31   15   16 1
    32   15   44 1
    33   16   17 2
    34   16   22 1
    35   17   18 1
    36   17   45 1
    37   18   19 1
    38   18   20 1
    39   18   21 1
    40   19   46 1
    41   19   62 1
    42   20   47 1
    43   20   48 1
    44   20   49 1
    45   21   50 1
    46   21   51 1
    47   21   52 1
    48   22   53 1
    49   22   54 1
    50   22   55 1
    51   23   28 ar
    52   23   24 ar
    53   24   25 ar
    54   24   32 1
    55   25   26 ar
    56   25   56 1
    57   26   27 ar
    58   26   57 1
    59   27   28 ar
    60   27   31 1
    61   28   29 1
    62   29   30 1
    63   30   58 1
    64   30   59 1
    65   30   60 1
    66   31   61 1
@<TRIPOS>MOLECULE
CHEMBL407848
   35    37     0     0     0
SMALL
USER_CHARGES

@<TRIPOS>ATOM
      1 C1         -0.8634    1.8431   -0.3600 C.3       1 <0>        -0.1292
      2 C2         -0.3694    0.4103   -0.1510 C.3       1 <0>        -0.0537
      3 C3          0.5758    0.0087   -1.2603 C.ar      1 <0>        -0.0986
      4 C4          0.4201   -0.1083   -2.6205 C.ar      1 <0>        -0.0775
      5 C5          1.4994   -0.5109   -3.4120 C.ar      1 <0>        -0.0118
      6 C6          2.7285   -0.7910   -2.8097 C.ar      1 <0>        -0.0943
      7 C7          2.8746   -0.6712   -1.4451 C.ar      1 <0>         0.0911
      8 C8          1.7955   -0.2681   -0.6534 C.ar      1 <0>         0.1182
      9 N1          1.7014   -0.0779    0.7256 N.am      1 <0>        -0.6551
     10 C9          0.4741    0.3176    1.1026 C.2       1 <0>         0.5368
     11 O1          0.1103    0.5560    2.2349 O.2       1 <0>        -0.4849
     12 F1          4.0660   -0.9441   -0.8697 F         1 <0>        -0.1311
     13 C10         1.3415   -0.6400   -4.8748 C.2       1 <0>         0.0907
     14 C11         2.3611   -0.6161   -5.8016 C.2       1 <0>        -0.1714
     15 C12         1.7890   -0.7686   -7.0640 C.2       1 <0>        -0.1074
     16 C13         0.4241   -0.8838   -6.8893 C.2       1 <0>         0.0614
     17 N2          0.1601   -0.8094   -5.5402 N.pl3     1 <0>        -0.4141
     18 C14        -1.1654   -0.8942   -4.9219 C.3       1 <0>         0.0537
     19 C15        -0.5458   -1.0557   -7.9287 C.1       1 <0>         0.2754
     20 N3         -1.3153   -1.1921   -8.7532 N.1       1 <0>        -0.4005
     21 C16        -1.5522   -0.5573   -0.0740 C.3       1 <0>        -0.1290
     22 H1         -0.0084    2.5152   -0.4329 H         1 <0>         0.0640
     23 H2         -1.4465    1.8959   -1.2794 H         1 <0>         0.0754
     24 H3         -1.4873    2.1390    0.4834 H         1 <0>         0.0761
     25 H4         -0.5341    0.1101   -3.0769 H         1 <0>         0.1403
     26 H5          3.5665   -1.1026   -3.4156 H         1 <0>         0.1556
     27 H6          2.4379   -0.2155    1.3417 H         1 <0>         0.4188
     28 H7          3.4135   -0.5001   -5.5886 H         1 <0>         0.1549
     29 H8          2.3168   -0.7919   -8.0059 H         1 <0>         0.1558
     30 H9         -1.5520    0.1107   -4.7520 H         1 <0>         0.0871
     31 H10        -1.8409   -1.4364   -5.5836 H         1 <0>         0.0899
     32 H11        -1.0894   -1.4200   -3.9701 H         1 <0>         0.0984
     33 H12        -2.1138   -0.5195   -1.0074 H         1 <0>         0.0748
     34 H13        -1.1831   -1.5701    0.0873 H         1 <0>         0.0635
     35 H14        -2.2022   -0.2714    0.7529 H         1 <0>         0.0767
@<TRIPOS>BOND
     1    1    2 1
     2    1   22 1
     3    1   23 1
     4    1   24 1
     5    2   10 1
     6    2    3 1
     7    2   21 1
     8    3    8 ar
     9    3    4 ar
    10    4    5 ar
    11    4   25 1
    12    5    6 ar
    13    5   13 1
    14    6    7 ar
    15    6   26 1
    16    7    8 ar
    17    7   12 1
    18    8    9 1
    19    9   10 am
    20    9   27 1
    21   10   11 2
    22   13   17 1
    23   13   14 2
    24   14   15 1
    25   14   28 1
    26   15   16 2
    27   15   29 1
    28   16   17 1
    29   16   19 1
    30   17   18 1
    31   18   30 1
    32   18   31 1
    33   18   32 1
    34   19   20 3
    35   21   33 1
    36   21   34 1
    37   21   35 1
@<TRIPOS>MOLECULE
CHEMBL450334
   33    36     0     0     0
SMALL
USER_CHARGES

@<TRIPOS>ATOM
      1 C1         -0.0167    1.3800    0.0096 C.ar      1 <0>        -0.1154
      2 C2          1.1660    2.0979    0.0022 C.ar      1 <0>        -0.1089
      3 C3          2.3793    1.4364   -0.0157 C.ar      1 <0>        -0.1039
      4 C4          2.4015    0.0485   -0.0247 C.ar      1 <0>        -0.0298
      5 C5          1.2053   -0.6743   -0.0123 C.ar      1 <0>        -0.1285
      6 C6          0.0021   -0.0041    0.0020 C.ar      1 <0>        -0.0979
      7 C7          1.2603   -2.1792   -0.0070 C.3       1 <0>         0.1136
      8 O1          2.4222   -2.6319   -0.7023 O.3       1 <0>        -0.3011
      9 C8          3.6149   -2.0681   -0.3978 C.ar      1 <0>         0.1997
     10 C9          3.6716   -0.7150   -0.0521 C.ar      1 <0>        -0.1411
     11 C10         4.8898   -0.1150    0.2552 C.ar      1 <0>        -0.0121
     12 C11         6.0558   -0.8492    0.2270 C.ar      1 <0>        -0.1840
     13 C12         6.0257   -2.1989   -0.1092 C.ar      1 <0>         0.2257
     14 C13         4.7985   -2.8167   -0.4237 C.ar      1 <0>        -0.1376
     15 C14         4.7876   -4.2365   -0.7724 C.2       1 <0>        -0.0684
     16 C15         5.9648   -4.9118   -0.7816 C.2       1 <0>        -0.1472
     17 C16         7.1661   -4.2475   -0.4602 C.2       1 <0>         0.5405
     18 O2          8.2126   -4.8723   -0.4750 O.2       1 <0>        -0.5142
     19 N1          7.1869   -2.9426   -0.1386 N.am      1 <0>        -0.6230
     20 H1          8.0317   -2.5174    0.0766 H         1 <0>         0.4243
     21 C17         3.4968   -4.9353   -1.1139 C.3       1 <0>         0.5154
     22 F1          3.7570   -6.2781   -1.4079 F         1 <0>        -0.1733
     23 F2          2.6221   -4.8574   -0.0248 F         1 <0>        -0.1644
     24 F3          2.9129   -4.3191   -2.2259 F         1 <0>        -0.1570
     25 H2         -0.9613    1.9033    0.0260 H         1 <0>         0.1283
     26 H3          1.1410    3.1776    0.0100 H         1 <0>         0.1293
     27 H4          3.3035    1.9953   -0.0230 H         1 <0>         0.1298
     28 H5         -0.9253   -0.5576    0.0077 H         1 <0>         0.1305
     29 H6          1.2936   -2.5358    1.0225 H         1 <0>         0.0814
     30 H7          0.3699   -2.5750   -0.4954 H         1 <0>         0.1249
     31 H8          4.9212    0.9322    0.5176 H         1 <0>         0.1442
     32 H9          6.9961   -0.3751    0.4664 H         1 <0>         0.1464
     33 H10         5.9814   -5.9614   -1.0355 H         1 <0>         0.1740
@<TRIPOS>BOND
     1    1    6 ar
     2    1    2 ar
     3    1   25 1
     4    2    3 ar
     5    2   26 1
     6    3    4 ar
     7    3   27 1
     8    4   10 1
     9    4    5 ar
    10    5    6 ar
    11    5    7 1
    12    6   28 1
    13    7    8 1
    14    7   29 1
    15    7   30 1
    16    8    9 1
    17    9   14 ar
    18    9   10 ar
    19   10   11 ar
    20   11   12 ar
    21   11   31 1
    22   12   13 ar
    23   12   32 1
    24   13   19 1
    25   13   14 ar
    26   14   15 1
    27   15   16 2
    28   15   21 1
    29   16   17 1
    30   16   33 1
    31   17   18 2
    32   17   19 am
    33   19   20 1
    34   21   22 1
    35   21   23 1
    36   21   24 1
@<TRIPOS>MOLECULE
CHEMBL257751
   33    36     0     0     0
SMALL
USER_CHARGES

@<TRIPOS>ATOM
      1 C1         -0.0167    1.3817    0.0096 C.ar      1 <0>        -0.1090
      2 C2          1.1602    2.1037    0.0023 C.ar      1 <0>        -0.0459
      3 C3          2.3755    1.4301   -0.0133 C.ar      1 <0>        -0.1600
      4 C4          2.3998    0.0169   -0.0238 C.ar      1 <0>        -0.0200
      5 C5          3.7214   -0.6379   -0.0455 C.ar      1 <0>        -0.1389
      6 C6          3.8464   -2.0041   -0.3122 C.ar      1 <0>        -0.0138
      7 C7          5.0744   -2.5990   -0.3351 C.ar      1 <0>        -0.1734
      8 C8          6.2250   -1.8505   -0.0931 C.ar      1 <0>         0.2341
      9 C9          6.1208   -0.4738    0.1796 C.ar      1 <0>        -0.1275
     10 C10         4.8580    0.1398    0.2061 C.ar      1 <0>         0.1928
     11 O1          4.7413    1.4604    0.4813 O.3       1 <0>        -0.2802
     12 C11         3.6739    2.1279   -0.0178 C.2       1 <0>         0.5363
     13 O2          3.7823    3.2582   -0.4528 O.2       1 <0>        -0.4104
     14 C12         7.3383    0.2944    0.4337 C.2       1 <0>        -0.0744
     15 C13         8.5321   -0.3507    0.3968 C.2       1 <0>        -0.1371
     16 C14         8.5826   -1.7319    0.1181 C.2       1 <0>         0.5397
     17 O3          9.6644   -2.2931    0.0896 O.2       1 <0>        -0.5075
     18 N1          7.4680   -2.4456   -0.1166 N.am      1 <0>        -0.6205
     19 H1          7.5396   -3.3943   -0.3054 H         1 <0>         0.4268
     20 C15         7.2697    1.7705    0.7296 C.3       1 <0>         0.5118
     21 F1          8.5620    2.2657    0.9339 F         1 <0>        -0.1706
     22 F2          6.6808    2.4358   -0.3511 F         1 <0>        -0.1589
     23 F3          6.5025    1.9803    1.8805 F         1 <0>        -0.1595
     24 C16         1.2038   -0.6951   -0.0147 C.ar      1 <0>         0.1137
     25 C17         0.0021   -0.0041    0.0020 C.ar      1 <0>        -0.0985
     26 O4          1.2140   -2.0538   -0.0224 O.3       1 <0>        -0.4855
     27 H2         -0.9626    1.9027    0.0260 H         1 <0>         0.1444
     28 H3          1.1364    3.1834    0.0082 H         1 <0>         0.1469
     29 H4          2.9624   -2.5949   -0.5018 H         1 <0>         0.1740
     30 H5          5.1551   -3.6560   -0.5416 H         1 <0>         0.1521
     31 H6          9.4454    0.1953    0.5812 H         1 <0>         0.1774
     32 H7         -0.9290   -0.5512    0.0092 H         1 <0>         0.1444
     33 H8          1.2267   -2.4521    0.8587 H         1 <0>         0.3973
@<TRIPOS>BOND
     1    1   25 ar
     2    1    2 ar
     3    1   27 1
     4    2    3 ar
     5    2   28 1
     6    3   12 1
     7    3    4 ar
     8    4    5 1
     9    4   24 ar
    10    5   10 ar
    11    5    6 ar
    12    6    7 ar
    13    6   29 1
    14    7    8 ar
    15    7   30 1
    16    8   18 1
    17    8    9 ar
    18    9   10 ar
    19    9   14 1
    20   10   11 1
    21   11   12 1
    22   12   13 2
    23   14   15 2
    24   14   20 1
    25   15   16 1
    26   15   31 1
    27   16   17 2
    28   16   18 am
    29   18   19 1
    30   20   21 1
    31   20   22 1
    32   20   23 1
    33   24   25 ar
    34   24   26 1
    35   25   32 1
    36   26   33 1
@<TRIPOS>MOLECULE
CHEMBL376323
   54    57     0     0     0
SMALL
USER_CHARGES

@<TRIPOS>ATOM
      1 C1         -0.0187    1.5258    0.0104 C.3       1 <0>        -0.1403
      2 C2          0.0021   -0.0041    0.0020 C.3       1 <0>         0.2021
      3 C3          0.7421   -0.5109    1.2415 C.3       1 <0>         0.0460
      4 O1          0.0732   -0.0501    2.4172 O.3       1 <0>        -0.3339
      5 C4          0.6014   -0.4115    3.6029 C.2       1 <0>         0.5116
      6 O2          1.6024   -1.0990    3.6376 O.2       1 <0>        -0.5002
      7 C5         -0.0361    0.0279    4.8594 C.ar      1 <0>        -0.1319
      8 C6         -1.1909    0.8141    4.8202 C.ar      1 <0>        -0.0537
      9 C7         -1.7844    1.2233    5.9928 C.ar      1 <0>        -0.1275
     10 C8         -1.2336    0.8535    7.2202 C.ar      1 <0>        -0.0005
     11 C9         -0.0806    0.0690    7.2608 C.ar      1 <0>        -0.1254
     12 C10         0.5113   -0.3467    6.0897 C.ar      1 <0>        -0.0468
     13 C11        -1.8740    1.2949    8.4825 C.ar      1 <0>        -0.0622
     14 C12        -3.0292    2.0744    8.4457 C.ar      1 <0>        -0.1031
     15 C13        -3.6208    2.4824    9.6238 C.ar      1 <0>        -0.1190
     16 C14        -3.0698    2.1193   10.8396 C.ar      1 <0>        -0.1102
     17 C15        -1.9233    1.3463   10.8823 C.ar      1 <0>        -0.1188
     18 C16        -1.3265    0.9273    9.7107 C.ar      1 <0>        -0.1032
     19 C17         0.7074   -0.4901   -1.2379 C.2       1 <0>         0.0658
     20 C18         2.0242   -0.7341   -1.3297 C.2       1 <0>        -0.1645
     21 C19         2.2816   -1.1857   -2.6993 C.ar      1 <0>        -0.0918
     22 C20         3.4279   -1.5811   -3.3915 C.ar      1 <0>         0.0170
     23 C21         3.3333   -1.9570   -4.7016 C.ar      1 <0>        -0.0385
     24 C22         2.1061   -1.9486   -5.3508 C.ar      1 <0>        -0.1204
     25 C23         0.9627   -1.5621   -4.6869 C.ar      1 <0>        -0.0583
     26 C24         1.0357   -1.1759   -3.3523 C.ar      1 <0>         0.1313
     27 N1          0.0996   -0.7536   -2.4351 N.pl3     1 <0>        -0.5587
     28 H1         -0.8490   -0.6551   -2.6121 H         1 <0>         0.4308
     29 C25         2.0242   -2.3660   -6.7965 C.3       1 <0>         0.5178
     30 F1          0.6979   -2.2779   -7.2329 F         1 <0>        -0.1750
     31 F2          2.8272   -1.5225   -7.5716 F         1 <0>        -0.1591
     32 F3          2.4714   -3.6851   -6.9270 F         1 <0>        -0.1591
     33 N2          4.5489   -2.3760   -5.4349 N.pl3     1 <0>         0.0315
     34 O3          5.6201   -2.3847   -4.8743 O.2       1 <0>        -0.1457
     35 O4          4.4706   -2.7096   -6.5943 O.3       1 <0>        -0.1451
     36 O5         -1.3386   -0.4987    0.0122 O.3       1 <0>        -0.5397
     37 H2          1.0039    1.9031    0.0027 H         1 <0>         0.0809
     38 H3         -0.5459    1.8868   -0.8726 H         1 <0>         0.0698
     39 H4         -0.5289    1.8773    0.9072 H         1 <0>         0.0863
     40 H5          0.7568   -1.6008    1.2356 H         1 <0>         0.0807
     41 H6          1.7647   -0.1336    1.2338 H         1 <0>         0.0889
     42 H7         -1.6172    1.1008    3.8702 H         1 <0>         0.1422
     43 H8         -2.6766    1.8311    5.9627 H         1 <0>         0.1361
     44 H9          0.3451   -0.2160    8.2115 H         1 <0>         0.1375
     45 H10         1.4010   -0.9582    6.1214 H         1 <0>         0.1413
     46 H11        -3.4601    2.3587    7.4971 H         1 <0>         0.1276
     47 H12        -4.5156    3.0866    9.5966 H         1 <0>         0.1270
     48 H13        -3.5362    2.4409   11.7591 H         1 <0>         0.1254
     49 H14        -1.4973    1.0661   11.8343 H         1 <0>         0.1271
     50 H15        -0.4344    0.3195    9.7452 H         1 <0>         0.1277
     51 H16         2.7553   -0.6190   -0.5432 H         1 <0>         0.1664
     52 H17         4.3860   -1.5894   -2.8932 H         1 <0>         0.1683
     53 H18         0.0128   -1.5590   -5.2007 H         1 <0>         0.1619
     54 H19        -1.4018   -1.4636    0.0076 H         1 <0>         0.3834
@<TRIPOS>BOND
     1    1    2 1
     2    1   37 1
     3    1   38 1
     4    1   39 1
     5    2    3 1
     6    2   19 1
     7    2   36 1
     8    3    4 1
     9    3   40 1
    10    3   41 1
    11    4    5 1
    12    5    6 2
    13    5    7 1
    14    7   12 ar
    15    7    8 ar
    16    8    9 ar
    17    8   42 1
    18    9   10 ar
    19    9   43 1
    20   10   11 ar
    21   10   13 1
    22   11   12 ar
    23   11   44 1
    24   12   45 1
    25   13   18 ar
    26   13   14 ar
    27   14   15 ar
    28   14   46 1
    29   15   16 ar
    30   15   47 1
    31   16   17 ar
    32   16   48 1
    33   17   18 ar
    34   17   49 1
    35   18   50 1
    36   19   27 1
    37   19   20 2
    38   20   21 1
    39   20   51 1
    40   21   26 ar
    41   21   22 ar
    42   22   23 ar
    43   22   52 1
    44   23   24 ar
    45   23   33 1
    46   24   25 ar
    47   24   29 1
    48   25   26 ar
    49   25   53 1
    50   26   27 1
    51   27   28 1
    52   29   30 1
    53   29   31 1
    54   29   32 1
    55   33   34 2
    56   33   35 1
    57   36   54 1
@<TRIPOS>MOLECULE
CHEMBL376323__1
   54    57     0     0     0
SMALL
USER_CHARGES

@<TRIPOS>ATOM
      1 C1         -0.0187    1.5258    0.0104 C.3       1 <0>        -0.1396
      2 C2          0.0021   -0.0041    0.0020 C.3       1 <0>         0.2019
      3 C3          0.7421   -0.5109    1.2415 C.3       1 <0>         0.0464
      4 O1          2.0438    0.0763    1.2925 O.3       1 <0>        -0.3344
      5 C4          2.8303   -0.2685    2.3307 C.2       1 <0>         0.5116
      6 O2          2.4220   -1.0465    3.1698 O.2       1 <0>        -0.5002
      7 C5          4.1877    0.2988    2.4486 C.ar      1 <0>        -0.1318
      8 C6          4.6558    1.1982    1.4867 C.ar      1 <0>        -0.0538
      9 C7          5.9220    1.7265    1.5979 C.ar      1 <0>        -0.1275
     10 C8          6.7379    1.3645    2.6701 C.ar      1 <0>        -0.0005
     11 C9          6.2720    0.4665    3.6308 C.ar      1 <0>        -0.1253
     12 C10         5.0040   -0.0585    3.5254 C.ar      1 <0>        -0.0467
     13 C11         8.1016    1.9344    2.7886 C.ar      1 <0>        -0.0622
     14 C12         8.5685    2.8361    1.8334 C.ar      1 <0>        -0.1031
     15 C13         9.8386    3.3632    1.9487 C.ar      1 <0>        -0.1190
     16 C14        10.6481    2.9985    3.0096 C.ar      1 <0>        -0.1102
     17 C15        10.1903    2.1039    3.9603 C.ar      1 <0>        -0.1188
     18 C16         8.9197    1.5750    3.8586 C.ar      1 <0>        -0.1032
     19 C17        -1.4117   -0.5257    0.0127 C.2       1 <0>         0.0658
     20 C18        -2.1262   -0.7928    1.1173 C.2       1 <0>        -0.1645
     21 C19        -3.4366   -1.2743    0.6736 C.ar      1 <0>        -0.0918
     22 C20        -4.5890   -1.7013    1.3365 C.ar      1 <0>         0.0170
     23 C21        -5.6782   -2.1003    0.6146 C.ar      1 <0>        -0.0384
     24 C22        -5.6485   -2.0850   -0.7733 C.ar      1 <0>        -0.1203
     25 C23        -4.5221   -1.6675   -1.4474 C.ar      1 <0>        -0.0584
     26 C24        -3.4016   -1.2565   -0.7325 C.ar      1 <0>         0.1313
     27 N1         -2.1594   -0.7916   -1.1020 N.pl3     1 <0>        -0.5587
     28 H1         -1.8582   -0.6727   -2.0164 H         1 <0>         0.4308
     29 C25        -6.8606   -2.5302   -1.5503 C.3       1 <0>         0.5177
     30 F1         -6.5989   -2.4293   -2.9209 F         1 <0>        -0.1750
     31 F2         -7.1585   -3.8588   -1.2289 F         1 <0>        -0.1591
     32 F3         -7.9497   -1.7156   -1.2223 F         1 <0>        -0.1590
     33 N2         -6.8995   -2.5528    1.3179 N.pl3     1 <0>         0.0315
     34 O3         -6.9305   -2.5684    2.5264 O.2       1 <0>        -0.1456
     35 O4         -7.8661   -2.9069    0.6838 O.3       1 <0>        -0.1453
     36 O5          0.6709   -0.4649   -1.1737 O.3       1 <0>        -0.5406
     37 H2          1.0039    1.9031    0.0027 H         1 <0>         0.0869
     38 H3         -0.5459    1.8868   -0.8726 H         1 <0>         0.0695
     39 H4         -0.5289    1.8773    0.9072 H         1 <0>         0.0807
     40 H5          0.1838   -0.2350    2.1361 H         1 <0>         0.0888
     41 H6          0.8346   -1.5958    1.1912 H         1 <0>         0.0809
     42 H7          4.0246    1.4783    0.6564 H         1 <0>         0.1419
     43 H8          6.2842    2.4212    0.8545 H         1 <0>         0.1362
     44 H9          6.9049    0.1866    4.4599 H         1 <0>         0.1375
     45 H10         4.6416   -0.7497    4.2720 H         1 <0>         0.1413
     46 H11         7.9376    3.1213    1.0045 H         1 <0>         0.1276
     47 H12        10.2016    4.0616    1.2091 H         1 <0>         0.1270
     48 H13        11.6414    3.4136    3.0959 H         1 <0>         0.1255
     49 H14        10.8267    1.8225    4.7862 H         1 <0>         0.1271
     50 H15         8.5614    0.8806    4.6042 H         1 <0>         0.1277
     51 H16        -1.7972   -0.6755    2.1392 H         1 <0>         0.1664
     52 H17        -4.6191   -1.7165    2.4159 H         1 <0>         0.1683
     53 H18        -4.5089   -1.6593   -2.5273 H         1 <0>         0.1619
     54 H19         0.7216   -1.4279   -1.2455 H         1 <0>         0.3835
@<TRIPOS>BOND
     1    1    2 1
     2    1   37 1
     3    1   38 1
     4    1   39 1
     5    2    3 1
     6    2   19 1
     7    2   36 1
     8    3    4 1
     9    3   40 1
    10    3   41 1
    11    4    5 1
    12    5    6 2
    13    5    7 1
    14    7   12 ar
    15    7    8 ar
    16    8    9 ar
    17    8   42 1
    18    9   10 ar
    19    9   43 1
    20   10   11 ar
    21   10   13 1
    22   11   12 ar
    23   11   44 1
    24   12   45 1
    25   13   18 ar
    26   13   14 ar
    27   14   15 ar
    28   14   46 1
    29   15   16 ar
    30   15   47 1
    31   16   17 ar
    32   16   48 1
    33   17   18 ar
    34   17   49 1
    35   18   50 1
    36   19   27 1
    37   19   20 2
    38   20   21 1
    39   20   51 1
    40   21   26 ar
    41   21   22 ar
    42   22   23 ar
    43   22   52 1
    44   23   24 ar
    45   23   33 1
    46   24   25 ar
    47   24   29 1
    48   25   26 ar
    49   25   53 1
    50   26   27 1
    51   27   28 1
    52   29   30 1
    53   29   31 1
    54   29   32 1
    55   33   34 2
    56   33   35 1
    57   36   54 1
@<TRIPOS>MOLECULE
CHEMBL75071
   60    64     0     0     0
SMALL
USER_CHARGES

@<TRIPOS>ATOM
      1 C1          0.3579    1.6189    0.0343 C.3       1 <0>        -0.1541
      2 C2          0.1956    0.0978    0.0597 C.3       1 <0>        -0.0465
      3 C3         -1.2385   -0.2582    0.3973 C.3       1 <0>        -0.1088
      4 C4         -1.5859    0.4385    1.7244 C.3       1 <0>        -0.1180
      5 C5         -0.6243    0.0249    2.8325 C.3       1 <0>        -0.0644
      6 C6          0.8379    0.2834    2.4337 C.3       1 <0>        -0.0832
      7 C7          1.1013   -0.5076    1.1667 C.3       1 <0>        -0.0788
      8 C8          2.4945   -0.3450    0.5494 C.3       1 <0>        -0.1138
      9 C9          2.2651   -0.7396   -0.9353 C.3       1 <0>        -0.1167
     10 C10         0.7617   -0.5020   -1.2232 C.3       1 <0>        -0.1148
     11 C11         0.5955    0.4633   -2.3685 C.2       1 <0>         0.4314
     12 O1          1.4750    1.2611   -2.6227 O.2       1 <0>        -0.4740
     13 C12        -0.5841    0.4399   -3.1470 C.2       1 <0>        -0.0946
     14 C13        -1.6661   -0.4053   -2.9704 C.2       1 <0>        -0.1082
     15 C14        -2.6000   -0.0820   -3.9562 C.2       1 <0>        -0.2167
     16 C15        -2.0873    0.9295   -4.7005 C.2       1 <0>         0.0350
     17 N1         -0.8715    1.2587   -4.2183 N.pl3     1 <0>        -0.5201
     18 H1         -0.2938    1.9546   -4.5689 H         1 <0>         0.4229
     19 C16         1.7622   -0.1779    3.5606 C.3       1 <0>        -0.1092
     20 C17         1.4537    0.6206    4.8321 C.3       1 <0>        -0.1291
     21 C18         0.3007    1.5818    4.5469 C.3       1 <0>         0.1534
     22 C19        -0.9322    0.7825    4.1196 C.3       1 <0>        -0.0478
     23 C20        -2.0927    1.7216    3.9279 C.2       1 <0>        -0.0903
     24 C21        -2.2292    2.7526    4.7656 C.2       1 <0>        -0.1968
     25 C22        -1.2472    2.9268    5.8515 C.2       1 <0>         0.5456
     26 O2         -1.5408    3.5594    6.8477 O.2       1 <0>        -0.5374
     27 N2         -0.0186    2.3778    5.7309 N.am      1 <0>        -0.6121
     28 C23         0.9857    2.5783    6.7785 C.3       1 <0>         0.0792
     29 C24        -1.2909   -0.2179    5.2203 C.3       1 <0>        -0.1395
     30 H2          1.4043    1.8698   -0.1391 H         1 <0>         0.0646
     31 H3         -0.2532    2.0361   -0.7661 H         1 <0>         0.0500
     32 H4          0.0381    2.0345    0.9899 H         1 <0>         0.0681
     33 H5         -1.9031    0.0945   -0.3913 H         1 <0>         0.0719
     34 H6         -1.3356   -1.3381    0.5093 H         1 <0>         0.0691
     35 H7         -1.5289    1.5182    1.5866 H         1 <0>         0.0706
     36 H8         -2.6017    0.1694    2.0139 H         1 <0>         0.0686
     37 H9         -0.7407   -1.0430    3.0178 H         1 <0>         0.0795
     38 H10         0.9826    1.3461    2.2394 H         1 <0>         0.0859
     39 H11         0.8625   -1.5597    1.3219 H         1 <0>         0.0808
     40 H12         2.8320    0.6886    0.6260 H         1 <0>         0.0701
     41 H13         3.2071   -1.0207    1.0224 H         1 <0>         0.0685
     42 H14         2.8744   -0.1136   -1.5872 H         1 <0>         0.0791
     43 H15         2.5134   -1.7902   -1.0858 H         1 <0>         0.0692
     44 H16         0.2665   -1.4463   -1.4493 H         1 <0>         0.0985
     45 H17        -1.7682   -1.1696   -2.2141 H         1 <0>         0.1484
     46 H18        -3.5607   -0.5537   -4.1008 H         1 <0>         0.1449
     47 H19        -2.5761    1.3988   -5.5415 H         1 <0>         0.1724
     48 H20         1.6024   -1.2394    3.7502 H         1 <0>         0.0685
     49 H21         2.7998   -0.0126    3.2703 H         1 <0>         0.0710
     50 H22         1.1696   -0.0628    5.6323 H         1 <0>         0.0764
     51 H23         2.3359    1.1872    5.1302 H         1 <0>         0.0744
     52 H24         0.5818    2.2479    3.7312 H         1 <0>         0.0770
     53 H25        -2.8013    1.5648    3.1281 H         1 <0>         0.1413
     54 H26        -3.0466    3.4488    4.6491 H         1 <0>         0.1449
     55 H27         1.5661    3.4743    6.5587 H         1 <0>         0.0553
     56 H28         0.4880    2.6948    7.7413 H         1 <0>         0.0766
     57 H29         1.6500    1.7149    6.8150 H         1 <0>         0.0755
     58 H30        -0.4512   -0.8928    5.3856 H         1 <0>         0.0677
     59 H31        -1.5117    0.3200    6.1423 H         1 <0>         0.0559
     60 H32        -2.1655   -0.7935    4.9171 H         1 <0>         0.0629
@<TRIPOS>BOND
     1    1    2 1
     2    1   30 1
     3    1   31 1
     4    1   32 1
     5    2    7 1
     6    2   10 1
     7    2    3 1
     8    3    4 1
     9    3   33 1
    10    3   34 1
    11    4    5 1
    12    4   35 1
    13    4   36 1
    14    5   22 1
    15    5    6 1
    16    5   37 1
    17    6    7 1
    18    6   19 1
    19    6   38 1
    20    7    8 1
    21    7   39 1
    22    8    9 1
    23    8   40 1
    24    8   41 1
    25    9   10 1
    26    9   42 1
    27    9   43 1
    28   10   11 1
    29   10   44 1
    30   11   12 2
    31   11   13 1
    32   13   17 1
    33   13   14 2
    34   14   15 1
    35   14   45 1
    36   15   16 2
    37   15   46 1
    38   16   17 1
    39   16   47 1
    40   17   18 1
    41   19   20 1
    42   19   48 1
    43   19   49 1
    44   20   21 1
    45   20   50 1
    46   20   51 1
    47   21   27 1
    48   21   22 1
    49   21   52 1
    50   22   23 1
    51   22   29 1
    52   23   24 2
    53   23   53 1
    54   24   25 1
    55   24   54 1
    56   25   26 2
    57   25   27 am
    58   27   28 1
    59   28   55 1
    60   28   56 1
    61   28   57 1
    62   29   58 1
    63   29   59 1
    64   29   60 1
@<TRIPOS>MOLECULE
CHEMBL369542
   45    49     0     0     0
SMALL
USER_CHARGES

@<TRIPOS>ATOM
      1 C1          0.0219    1.2850   -0.7867 C.ar      1 <0>        -0.0945
      2 C2          1.2071    2.0180   -0.7973 C.ar      1 <0>        -0.0851
      3 C3          2.4043    1.4175   -0.5558 C.ar      1 <0>        -0.1142
      4 C4          2.4496    0.0376   -0.2908 C.ar      1 <0>        -0.0080
      5 C5          1.2440   -0.7065   -0.2798 C.ar      1 <0>        -0.0374
      6 C6          0.0279   -0.0527   -0.5339 C.ar      1 <0>        -0.0993
      7 C7          1.2891   -2.0911   -0.0140 C.ar      1 <0>         0.1766
      8 C8          2.5035   -2.6940    0.2298 C.ar      1 <0>        -0.1019
      9 C9          3.6815   -1.9530    0.2165 C.ar      1 <0>        -0.0279
     10 C10         3.6676   -0.6153   -0.0367 C.ar      1 <0>        -0.0209
     11 N1          4.9345    0.1504   -0.0453 N.pl3     1 <0>         0.0300
     12 O1          5.9381   -0.3465   -0.5008 O.2       1 <0>        -0.1413
     13 O2          4.9656    1.2727    0.4033 O.3       1 <0>        -0.1448
     14 N2          0.1107   -2.8453    0.0022 N.am      1 <0>        -0.5414
     15 C11        -0.3798   -3.4487   -1.0887 C.2       1 <0>         0.5368
     16 O3          0.1174   -3.4186   -2.1939 O.2       1 <0>        -0.4555
     17 C12        -1.6560   -4.1749   -0.7173 C.3       1 <0>        -0.1076
     18 H1         -2.4961   -3.7567   -1.2717 H         1 <0>         0.1312
     19 C13        -1.8207   -3.8856    0.7738 C.3       1 <0>        -0.1072
     20 H2         -2.7394   -3.3242    0.9436 H         1 <0>         0.1315
     21 C14        -0.6181   -3.0291    1.1114 C.2       1 <0>         0.5373
     22 O4         -0.3581   -2.5807    2.2073 O.2       1 <0>        -0.4557
     23 C15        -1.8182   -5.1468    1.6291 C.3       1 <0>        -0.0437
     24 C16        -0.3864   -5.6578    1.7920 C.3       1 <0>        -0.1184
     25 C17        -0.0727   -6.7084    0.7361 C.3       1 <0>        -0.1257
     26 C18        -0.1088   -6.1350   -0.6738 C.3       1 <0>        -0.1174
     27 C19        -1.5121   -5.6588   -1.0346 C.3       1 <0>        -0.0430
     28 C20        -2.5271   -6.4693   -0.2763 C.2       1 <0>        -0.1421
     29 C21        -2.6893   -6.2106    1.0196 C.2       1 <0>        -0.1425
     30 H3         -0.9155    1.7863   -0.9774 H         1 <0>         0.1382
     31 H4          1.1751    3.0782   -1.0005 H         1 <0>         0.1409
     32 H5          3.3149    1.9980   -0.5679 H         1 <0>         0.1523
     33 H6         -0.8983   -0.6082   -0.5285 H         1 <0>         0.1278
     34 H7          2.5418   -3.7538    0.4341 H         1 <0>         0.1520
     35 H8          4.6221   -2.4471    0.4105 H         1 <0>         0.1605
     36 H9         -2.2045   -4.9009    2.6182 H         1 <0>         0.0936
     37 H10         0.3078   -4.8240    1.6880 H         1 <0>         0.0563
     38 H11        -0.2712   -6.0973    2.7828 H         1 <0>         0.0788
     39 H12         0.9200   -7.1162    0.9268 H         1 <0>         0.0650
     40 H13        -0.8041   -7.5132    0.8095 H         1 <0>         0.0793
     41 H14         0.5793   -5.2920   -0.7370 H         1 <0>         0.0554
     42 H15         0.1989   -6.9036   -1.3827 H         1 <0>         0.0789
     43 H16        -1.6863   -5.8085   -2.1002 H         1 <0>         0.0956
     44 H17        -3.1224   -7.2226   -0.7709 H         1 <0>         0.1281
     45 H18        -3.4093   -6.7516    1.6158 H         1 <0>         0.1293
@<TRIPOS>BOND
     1    1    6 ar
     2    1    2 ar
     3    1   30 1
     4    2    3 ar
     5    2   31 1
     6    3    4 ar
     7    3   32 1
     8    4   10 ar
     9    4    5 ar
    10    5    6 ar
    11    5    7 ar
    12    6   33 1
    13    7    8 ar
    14    7   14 1
    15    8    9 ar
    16    8   34 1
    17    9   10 ar
    18    9   35 1
    19   10   11 1
    20   11   12 2
    21   11   13 1
    22   14   21 am
    23   14   15 am
    24   15   16 2
    25   15   17 1
    26   17   18 1
    27   17   27 1
    28   17   19 1
    29   19   20 1
    30   19   21 1
    31   19   23 1
    32   21   22 2
    33   23   29 1
    34   23   24 1
    35   23   36 1
    36   24   25 1
    37   24   37 1
    38   24   38 1
    39   25   26 1
    40   25   39 1
    41   25   40 1
    42   26   27 1
    43   26   41 1
    44   26   42 1
    45   27   28 1
    46   27   43 1
    47   28   29 2
    48   28   44 1
    49   29   45 1
@<TRIPOS>MOLECULE
CHEMBL369542__1
   45    49     0     0     0
SMALL
USER_CHARGES

@<TRIPOS>ATOM
      1 C1          0.0219    1.2850   -0.7867 C.ar      1 <0>        -0.0949
      2 C2          1.2071    2.0180   -0.7973 C.ar      1 <0>        -0.0855
      3 C3          2.4043    1.4175   -0.5558 C.ar      1 <0>        -0.1141
      4 C4          2.4496    0.0376   -0.2908 C.ar      1 <0>        -0.0082
      5 C5          1.2440   -0.7065   -0.2798 C.ar      1 <0>        -0.0377
      6 C6          0.0279   -0.0527   -0.5339 C.ar      1 <0>        -0.0992
      7 C7          1.2891   -2.0911   -0.0140 C.ar      1 <0>         0.1766
      8 C8          2.5035   -2.6940    0.2298 C.ar      1 <0>        -0.1006
      9 C9          3.6815   -1.9530    0.2165 C.ar      1 <0>        -0.0279
     10 C10         3.6676   -0.6153   -0.0367 C.ar      1 <0>        -0.0217
     11 N1          4.9345    0.1504   -0.0453 N.pl3     1 <0>         0.0302
     12 O1          5.9381   -0.3465   -0.5008 O.2       1 <0>        -0.1416
     13 O2          4.9656    1.2727    0.4033 O.3       1 <0>        -0.1451
     14 N2          0.1107   -2.8453    0.0022 N.am      1 <0>        -0.5372
     15 C11        -0.3799   -3.4487   -1.0887 C.2       1 <0>         0.5323
     16 O3          0.1176   -3.4188   -2.1938 O.2       1 <0>        -0.4563
     17 C12        -1.6566   -4.1740   -0.7176 C.3       1 <0>        -0.1058
     18 H1         -2.4963   -3.7551   -1.2721 H         1 <0>         0.1334
     19 C13        -1.8214   -3.8845    0.7734 C.3       1 <0>        -0.1054
     20 H2         -2.7400   -3.3228    0.9431 H         1 <0>         0.1340
     21 C14        -0.6181   -3.0291    1.1114 C.2       1 <0>         0.5329
     22 O4         -0.3581   -2.5807    2.2073 O.2       1 <0>        -0.4562
     23 C15        -1.8194   -5.1461    1.6287 C.3       1 <0>        -0.0447
     24 C16        -3.1715   -5.8503    1.5150 C.3       1 <0>        -0.1065
     25 C17        -3.1259   -6.9206    0.4334 C.3       1 <0>        -0.1272
     26 C18        -2.8950   -6.3298   -0.9503 C.3       1 <0>        -0.1055
     27 C19        -1.5140   -5.6579   -1.0348 C.3       1 <0>        -0.0467
     28 C20        -0.5460   -6.3177   -0.0917 C.2       1 <0>        -0.1547
     29 C21        -0.7085   -6.0718    1.2150 C.2       1 <0>        -0.1521
     30 H3         -0.9155    1.7863   -0.9774 H         1 <0>         0.1381
     31 H4          1.1751    3.0782   -1.0005 H         1 <0>         0.1407
     32 H5          3.3149    1.9980   -0.5679 H         1 <0>         0.1522
     33 H6         -0.8983   -0.6082   -0.5285 H         1 <0>         0.1277
     34 H7          2.5418   -3.7538    0.4341 H         1 <0>         0.1527
     35 H8          4.6221   -2.4471    0.4105 H         1 <0>         0.1603
     36 H9         -1.6712   -4.8634    2.6709 H         1 <0>         0.0926
     37 H10        -3.4167   -6.3145    2.4703 H         1 <0>         0.0745
     38 H11        -3.9387   -5.1178    1.2642 H         1 <0>         0.0713
     39 H12        -2.3192   -7.6179    0.6594 H         1 <0>         0.0719
     40 H13        -4.0710   -7.4637    0.4330 H         1 <0>         0.0659
     41 H14        -2.9493   -7.1240   -1.6949 H         1 <0>         0.0737
     42 H15        -3.6679   -5.5902   -1.1599 H         1 <0>         0.0712
     43 H16        -1.1262   -5.7645   -2.0479 H         1 <0>         0.0927
     44 H17         0.2358   -6.9666   -0.4581 H         1 <0>         0.1266
     45 H18        -0.0509   -6.5168    1.9470 H         1 <0>         0.1235
@<TRIPOS>BOND
     1    1    6 ar
     2    1    2 ar
     3    1   30 1
     4    2    3 ar
     5    2   31 1
     6    3    4 ar
     7    3   32 1
     8    4   10 ar
     9    4    5 ar
    10    5    6 ar
    11    5    7 ar
    12    6   33 1
    13    7    8 ar
    14    7   14 1
    15    8    9 ar
    16    8   34 1
    17    9   10 ar
    18    9   35 1
    19   10   11 1
    20   11   12 2
    21   11   13 1
    22   14   21 am
    23   14   15 am
    24   15   16 2
    25   15   17 1
    26   17   18 1
    27   17   27 1
    28   17   19 1
    29   19   20 1
    30   19   21 1
    31   19   23 1
    32   21   22 2
    33   23   29 1
    34   23   24 1
    35   23   36 1
    36   24   25 1
    37   24   37 1
    38   24   38 1
    39   25   26 1
    40   25   39 1
    41   25   40 1
    42   26   27 1
    43   26   41 1
    44   26   42 1
    45   27   28 1
    46   27   43 1
    47   28   29 2
    48   28   44 1
    49   29   45 1
@<TRIPOS>MOLECULE
CHEMBL233773
   34    36     0     0     0
SMALL
USER_CHARGES

@<TRIPOS>ATOM
      1 C1         -0.0184    1.5028    0.0103 C.3       1 <0>        -0.1296
      2 C2          0.0021   -0.0041    0.0020 C.ar      1 <0>        -0.0534
      3 C3          0.0057   -0.6921   -1.2065 C.ar      1 <0>         0.1627
      4 C4          0.0241   -2.0830   -1.2194 C.ar      1 <0>        -0.0791
      5 C5          0.0392   -2.7847   -0.0348 C.ar      1 <0>        -0.0567
      6 C6          0.0361   -2.0980    1.1826 C.ar      1 <0>         0.0097
      7 C7          0.0228   -0.6989    1.1923 C.ar      1 <0>         0.0031
      8 Cl1         0.0260    0.1603    2.7007 Cl        1 <0>        -0.0292
      9 C8          0.0513   -2.8244    2.4166 C.1       1 <0>         0.2436
     10 N1          0.0634   -3.4006    3.3956 N.1       1 <0>        -0.3797
     11 N2         -0.0095    0.0148   -2.4096 N.am      1 <0>        -0.8953
     12 C9         -1.0962    0.3295   -3.1397 C.2       1 <0>         0.5216
     13 O1         -2.2058   -0.0842   -2.8778 O.2       1 <0>        -0.4343
     14 C10        -0.8231    1.2267   -4.2931 C.3       1 <0>         0.0440
     15 H1         -1.2029    2.2273   -4.0863 H         1 <0>         0.1556
     16 C11        -1.3982    0.7085   -5.6256 C.3       1 <0>         0.1205
     17 H2         -2.4465    0.9881   -5.7300 H         1 <0>         0.0953
     18 C12        -0.5238    1.4453   -6.6742 C.3       1 <0>        -0.1688
     19 C13         0.7650    1.8359   -5.9145 C.3       1 <0>         0.1750
     20 N3          0.6309    1.2833   -4.5755 N.pl3     1 <0>        -1.0004
     21 S1          1.3154    0.6367   -3.2126 S.o2      1 <0>         2.7879
     22 O2          1.8149    1.7151   -2.4337 O.2       1 <0>        -0.9280
     23 O3          2.1155   -0.4630   -3.6247 O.2       1 <0>        -0.9320
     24 O4         -1.2394   -0.7077   -5.7308 O.3       1 <0>        -0.5562
     25 H3          1.0042    1.8801    0.0026 H         1 <0>         0.1007
     26 H4         -0.5455    1.8639   -0.8728 H         1 <0>         0.0697
     27 H5         -0.5286    1.8543    0.9071 H         1 <0>         0.0877
     28 H6          0.0262   -2.6134   -2.1602 H         1 <0>         0.1547
     29 H7          0.0531   -3.8646   -0.0463 H         1 <0>         0.1584
     30 H8         -0.2873    0.7805   -7.5049 H         1 <0>         0.0951
     31 H9         -1.0359    2.3372   -7.0353 H         1 <0>         0.0972
     32 H10         1.6354    1.4035   -6.4080 H         1 <0>         0.0858
     33 H11         0.8596    2.9210   -5.8718 H         1 <0>         0.0808
     34 H12        -1.5857   -1.0823   -6.5523 H         1 <0>         0.3935
@<TRIPOS>BOND
     1    1    2 1
     2    1   25 1
     3    1   26 1
     4    1   27 1
     5    2    7 ar
     6    2    3 ar
     7    3    4 ar
     8    3   11 1
     9    4    5 ar
    10    4   28 1
    11    5    6 ar
    12    5   29 1
    13    6    7 ar
    14    6    9 1
    15    7    8 1
    16    9   10 3
    17   11   21 1
    18   11   12 am
    19   12   13 2
    20   12   14 1
    21   14   15 1
    22   14   20 1
    23   14   16 1
    24   16   17 1
    25   16   18 1
    26   16   24 1
    27   18   19 1
    28   18   30 1
    29   18   31 1
    30   19   20 1
    31   19   32 1
    32   19   33 1
    33   20   21 1
    34   21   22 2
    35   21   23 2
    36   24   34 1
@<TRIPOS>MOLECULE
CHEMBL256769
   42    45     0     0     0
SMALL
USER_CHARGES

@<TRIPOS>ATOM
      1 C1         -0.0184    1.5024    0.0103 C.3       1 <0>        -0.1297
      2 C2          0.0021   -0.0041    0.0020 C.2       1 <0>         0.0080
      3 C3         -0.0013   -0.6336   -1.2063 C.2       1 <0>        -0.2072
      4 C4         -0.0595   -2.0393   -1.2804 C.2       1 <0>         0.5378
      5 O1          0.0359   -2.5922   -2.3607 O.2       1 <0>        -0.5237
      6 N1         -0.2355   -2.7761   -0.1714 N.am      1 <0>        -0.6296
      7 H1         -0.3906   -3.7302   -0.2513 H         1 <0>         0.4205
      8 C5         -0.1768   -2.2015    1.0785 C.ar      1 <0>         0.1874
      9 C6          0.0246   -0.8096    1.2190 C.ar      1 <0>        -0.0498
     10 C7          0.2666   -0.3029    2.5001 C.ar      1 <0>        -0.1085
     11 C8          0.0593   -1.1347    3.6358 C.ar      1 <0>        -0.0274
     12 C9         -0.3039   -2.4650    3.4600 C.ar      1 <0>        -0.0505
     13 C10        -0.3863   -2.9965    2.2060 C.ar      1 <0>        -0.1264
     14 C11         0.2550   -0.5216    4.9644 C.ar      1 <0>        -0.1437
     15 C12         0.2813    0.8821    5.0623 C.ar      1 <0>         0.1835
     16 C13         0.4023    1.5028    6.2982 C.ar      1 <0>        -0.1406
     17 C14         0.5395    0.7510    7.4410 C.ar      1 <0>        -0.0022
     18 C15         0.5720   -0.6455    7.3616 C.ar      1 <0>        -0.1706
     19 C16         0.4440   -1.2841    6.1177 C.ar      1 <0>         0.2245
     20 O2          0.5360   -2.6350    6.0674 O.3       1 <0>        -0.3172
     21 C17         1.8416   -3.1904    5.8970 C.3       1 <0>         0.0437
     22 C18         0.7406   -1.4502    8.5835 C.2       1 <0>         0.5267
     23 O3          0.7686   -2.6632    8.5132 O.2       1 <0>        -0.4444
     24 O4          0.8638   -0.8415    9.7796 O.3       1 <0>        -0.3599
     25 C19         1.0241   -1.6838   10.9228 C.3       1 <0>         0.6158
     26 F1          2.1804   -2.4571   10.7737 F         1 <0>        -0.1569
     27 F2          1.1363   -0.8940   12.0720 F         1 <0>        -0.1281
     28 F3         -0.0873   -2.5251   11.0418 F         1 <0>        -0.1553
     29 O5          0.2376    1.6315    3.9280 O.3       1 <0>        -0.2826
     30 C20         0.7730    1.0343    2.8305 C.2       1 <0>         0.5363
     31 O6          1.6768    1.5671    2.2206 O.2       1 <0>        -0.3974
     32 H2          1.0042    1.8797    0.0026 H         1 <0>         0.0981
     33 H3         -0.5455    1.8635   -0.8728 H         1 <0>         0.0876
     34 H4         -0.5285    1.8539    0.9071 H         1 <0>         0.0678
     35 H5          0.0423   -0.0440   -2.1109 H         1 <0>         0.1626
     36 H6         -0.5545   -3.0889    4.3041 H         1 <0>         0.1620
     37 H7         -0.6162   -4.0450    2.0844 H         1 <0>         0.1505
     38 H8          0.3884    2.5808    6.3647 H         1 <0>         0.1625
     39 H9          0.6219    1.2398    8.3998 H         1 <0>         0.1639
     40 H10         2.2692   -2.8327    4.9604 H         1 <0>         0.0509
     41 H11         2.4779   -2.8842    6.7273 H         1 <0>         0.0532
     42 H12         1.7735   -4.2780    5.8733 H         1 <0>         0.1083
@<TRIPOS>BOND
     1    1    2 1
     2    1   32 1
     3    1   33 1
     4    1   34 1
     5    2    9 1
     6    2    3 2
     7    3    4 1
     8    3   35 1
     9    4    5 2
    10    4    6 am
    11    6    7 1
    12    6    8 1
    13    8   13 ar
    14    8    9 ar
    15    9   10 ar
    16   10   30 1
    17   10   11 ar
    18   11   12 ar
    19   11   14 1
    20   12   13 ar
    21   12   36 1
    22   13   37 1
    23   14   19 ar
    24   14   15 ar
    25   15   16 ar
    26   15   29 1
    27   16   17 ar
    28   16   38 1
    29   17   18 ar
    30   17   39 1
    31   18   19 ar
    32   18   22 1
    33   19   20 1
    34   20   21 1
    35   21   40 1
    36   21   41 1
    37   21   42 1
    38   22   23 2
    39   22   24 1
    40   24   25 1
    41   25   26 1
    42   25   27 1
    43   25   28 1
    44   29   30 1
    45   30   31 2
@<TRIPOS>MOLECULE
CHEMBL255776
   35    38     0     0     0
SMALL
USER_CHARGES

@<TRIPOS>ATOM
      1 C1         -0.0167    1.3768    0.0096 C.ar      1 <0>        -0.0955
      2 C2          1.1707    2.0859    0.0021 C.ar      1 <0>        -0.0811
      3 C3          2.3795    1.4151   -0.0135 C.ar      1 <0>        -0.1622
      4 C4          2.4046    0.0339   -0.0217 C.ar      1 <0>        -0.0906
      5 C5          1.2145   -0.6805   -0.0137 C.ar      1 <0>         0.1382
      6 C6          0.0021   -0.0041    0.0020 C.ar      1 <0>        -0.1090
      7 N1          1.2367   -2.0823   -0.0224 N.am      1 <0>        -0.5354
      8 C7          0.1275   -2.8674   -0.0210 C.2       1 <0>         0.5281
      9 O1         -1.0292   -2.5253   -0.1429 O.2       1 <0>        -0.4462
     10 C8          0.6651   -4.2539    0.1660 C.3       1 <0>         0.0444
     11 H1          0.6141   -4.5538    1.2127 H         1 <0>         0.1358
     12 C9          0.0393   -5.3347   -0.7502 C.3       1 <0>        -0.0892
     13 C10         0.4513   -6.6301    0.0443 C.3       1 <0>        -0.1237
     14 C11         1.9981   -6.5536    0.0236 C.3       1 <0>        -0.1411
     15 C12         2.3588   -5.4046   -0.9551 C.3       1 <0>         0.1872
     16 C13         1.1000   -5.4350   -1.9095 C.3       1 <0>        -0.1463
     17 N2          2.0741   -4.1030   -0.2788 N.am      1 <0>        -0.6388
     18 C14         2.3622   -2.8264   -0.0390 C.2       1 <0>         0.7424
     19 O2          3.4828   -2.3923    0.1426 O.2       1 <0>        -0.5075
     20 C15         3.6711    2.1915   -0.0222 C.3       1 <0>         0.5112
     21 F1          3.3914    3.5622   -0.0120 F         1 <0>        -0.1747
     22 F2          4.4219    1.8604    1.1109 F         1 <0>        -0.1728
     23 F3          4.3992    1.8727   -1.1735 F         1 <0>        -0.1738
     24 H2         -0.9594    1.9034    0.0260 H         1 <0>         0.1464
     25 H3          1.1536    3.1657    0.0081 H         1 <0>         0.1450
     26 H4          3.3492   -0.4895   -0.0346 H         1 <0>         0.1672
     27 H5         -0.9255   -0.5573    0.0083 H         1 <0>         0.1589
     28 H6         -1.0056   -5.2078   -1.0333 H         1 <0>         0.1338
     29 H7          0.0751   -6.5938    1.0666 H         1 <0>         0.0775
     30 H8          0.1007   -7.5264   -0.4673 H         1 <0>         0.0831
     31 H9          2.3760   -6.3292    1.0211 H         1 <0>         0.0804
     32 H10         2.4156   -7.4951   -0.3332 H         1 <0>         0.0945
     33 H11         3.3324   -5.4902   -1.4377 H         1 <0>         0.1319
     34 H12         1.0223   -6.3735   -2.4584 H         1 <0>         0.1035
     35 H13         1.0664   -4.5716   -2.5740 H         1 <0>         0.0780
@<TRIPOS>BOND
     1    1    6 ar
     2    1    2 ar
     3    1   24 1
     4    2    3 ar
     5    2   25 1
     6    3    4 ar
     7    3   20 1
     8    4    5 ar
     9    4   26 1
    10    5    6 ar
    11    5    7 1
    12    6   27 1
    13    7   18 am
    14    7    8 am
    15    8    9 2
    16    8   10 1
    17   10   11 1
    18   10   17 1
    19   10   12 1
    20   12   16 1
    21   12   13 1
    22   12   28 1
    23   13   14 1
    24   13   29 1
    25   13   30 1
    26   14   15 1
    27   14   31 1
    28   14   32 1
    29   15   16 1
    30   15   17 1
    31   15   33 1
    32   16   34 1
    33   16   35 1
    34   17   18 am
    35   18   19 2
    36   20   21 1
    37   20   22 1
    38   20   23 1
@<TRIPOS>MOLECULE
CHEMBL255776__1
   35    38     0     0     0
SMALL
USER_CHARGES

@<TRIPOS>ATOM
      1 C1         -0.0167    1.3768    0.0096 C.ar      1 <0>        -0.0954
      2 C2          1.1707    2.0859    0.0021 C.ar      1 <0>        -0.0812
      3 C3          2.3795    1.4151   -0.0135 C.ar      1 <0>        -0.1621
      4 C4          2.4046    0.0339   -0.0217 C.ar      1 <0>        -0.0904
      5 C5          1.2145   -0.6805   -0.0137 C.ar      1 <0>         0.1378
      6 C6          0.0021   -0.0041    0.0020 C.ar      1 <0>        -0.1092
      7 N1          1.2367   -2.0823   -0.0224 N.am      1 <0>        -0.5348
      8 C7          0.1275   -2.8676   -0.0211 C.2       1 <0>         0.5315
      9 O1         -1.0291   -2.5267   -0.1474 O.2       1 <0>        -0.4457
     10 C8          0.6658   -4.2527    0.1719 C.3       1 <0>         0.0485
     11 H1          0.6146   -4.5579    1.2171 H         1 <0>         0.1366
     12 C9          0.0862   -5.3358   -0.7599 C.3       1 <0>        -0.0854
     13 C10         0.3533   -4.9021   -2.2283 C.3       1 <0>        -0.1228
     14 C11         1.8791   -5.0531   -2.4417 C.3       1 <0>        -0.1475
     15 C12         2.4042   -5.3798   -0.9948 C.3       1 <0>         0.1817
     16 C13         1.2661   -6.3695   -0.5551 C.3       1 <0>        -0.1328
     17 N2          2.0697   -4.1028   -0.2883 N.am      1 <0>        -0.6410
     18 C14         2.3622   -2.8266   -0.0390 C.2       1 <0>         0.7410
     19 O2          3.4829   -2.3958    0.1496 O.2       1 <0>        -0.5073
     20 C15         3.6711    2.1915   -0.0222 C.3       1 <0>         0.5112
     21 F1          3.3914    3.5622   -0.0120 F         1 <0>        -0.1747
     22 F2          4.4219    1.8604    1.1109 F         1 <0>        -0.1727
     23 F3          4.3992    1.8727   -1.1735 F         1 <0>        -0.1738
     24 H2         -0.9594    1.9034    0.0260 H         1 <0>         0.1463
     25 H3          1.1536    3.1657    0.0081 H         1 <0>         0.1450
     26 H4          3.3492   -0.4895   -0.0346 H         1 <0>         0.1669
     27 H5         -0.9255   -0.5573    0.0083 H         1 <0>         0.1587
     28 H6         -0.9211   -5.6822   -0.5285 H         1 <0>         0.1326
     29 H7         -0.1887   -5.5506   -2.9165 H         1 <0>         0.0845
     30 H8          0.0540   -3.8641   -2.3741 H         1 <0>         0.0630
     31 H9          2.0938   -5.8748   -3.1249 H         1 <0>         0.0878
     32 H10         2.3116   -4.1221   -2.8081 H         1 <0>         0.0713
     33 H11         3.4295   -5.7392   -0.9065 H         1 <0>         0.1355
     34 H12         1.3677   -6.6768    0.4857 H         1 <0>         0.0891
     35 H13         1.1840   -7.2254   -1.2250 H         1 <0>         0.1079
@<TRIPOS>BOND
     1    1    6 ar
     2    1    2 ar
     3    1   24 1
     4    2    3 ar
     5    2   25 1
     6    3    4 ar
     7    3   20 1
     8    4    5 ar
     9    4   26 1
    10    5    6 ar
    11    5    7 1
    12    6   27 1
    13    7   18 am
    14    7    8 am
    15    8    9 2
    16    8   10 1
    17   10   11 1
    18   10   17 1
    19   10   12 1
    20   12   16 1
    21   12   13 1
    22   12   28 1
    23   13   14 1
    24   13   29 1
    25   13   30 1
    26   14   15 1
    27   14   31 1
    28   14   32 1
    29   15   16 1
    30   15   17 1
    31   15   33 1
    32   16   34 1
    33   16   35 1
    34   17   18 am
    35   18   19 2
    36   20   21 1
    37   20   22 1
    38   20   23 1
@<TRIPOS>MOLECULE
CHEMBL362566
   48    52     0     0     0
SMALL
USER_CHARGES

@<TRIPOS>ATOM
      1 C1          0.7227    0.0974   -1.1974 C.ar      1 <0>        -0.0882
      2 C2          1.9075    0.8072   -1.2237 C.ar      1 <0>        -0.1364
      3 C3          2.3746    1.4187   -0.0726 C.ar      1 <0>         0.1078
      4 C4          1.6553    1.3193    1.1063 C.ar      1 <0>        -0.1382
      5 C5          0.4704    0.6097    1.1354 C.ar      1 <0>        -0.0830
      6 C6          0.0009   -0.0025   -0.0172 C.ar      1 <0>         0.0905
      7 O1         -1.1657   -0.7005    0.0099 O.3       1 <0>        -0.2992
      8 C7         -1.1032   -2.0411   -0.1016 C.2       1 <0>         0.6630
      9 O2         -0.0243   -2.6001   -0.1136 O.2       1 <0>        -0.5319
     10 N1         -2.2372   -2.7628   -0.1998 N.am      1 <0>        -0.6056
     11 C8         -3.6156   -2.2236   -0.2058 C.3       1 <0>         0.0813
     12 C9         -4.4994   -3.4852   -0.5294 C.3       1 <0>         0.1852
     13 H1         -5.5739   -3.4004   -0.3673 H         1 <0>         0.1566
     14 C10        -3.7207   -4.5133    0.3690 C.3       1 <0>        -0.1408
     15 C11        -2.3255   -4.2408   -0.3278 C.3       1 <0>         0.1671
     16 H2         -1.4706   -4.8009    0.0510 H         1 <0>         0.1584
     17 C12        -2.7907   -4.5736   -1.7608 C.3       1 <0>         0.0326
     18 H3         -2.9715   -5.6406   -1.8908 H         1 <0>         0.1562
     19 N2         -4.0521   -3.7599   -1.9146 N.am      1 <0>        -0.6547
     20 C13        -4.1329   -3.5552   -3.2309 C.2       1 <0>         0.7555
     21 O3         -5.1645   -3.4774   -3.8687 O.2       1 <0>        -0.4908
     22 N3         -2.8855   -3.4475   -3.7433 N.am      1 <0>        -0.5568
     23 C14        -1.9308   -4.0141   -2.8579 C.2       1 <0>         0.5380
     24 O4         -0.7219   -4.0354   -2.9452 O.2       1 <0>        -0.4087
     25 C15        -2.5817   -2.8734   -4.9821 C.ar      1 <0>         0.1813
     26 C16        -1.2618   -2.8194   -5.4165 C.ar      1 <0>        -0.1169
     27 C17        -0.9588   -2.2551   -6.6355 C.ar      1 <0>        -0.0392
     28 C18        -1.9800   -1.7362   -7.4365 C.ar      1 <0>         0.0112
     29 C19        -3.3050   -1.7923   -6.9966 C.ar      1 <0>        -0.1139
     30 C20        -3.6008   -2.3635   -5.7785 C.ar      1 <0>        -0.0978
     31 C21        -4.4098   -1.2342   -7.8563 C.3       1 <0>         0.5062
     32 F1         -5.6373   -1.4052   -7.2074 F         1 <0>        -0.1654
     33 F2         -4.1852    0.1288   -8.0776 F         1 <0>        -0.1689
     34 F3         -4.4324   -1.9081   -9.0821 F         1 <0>        -0.1683
     35 C22        -1.6690   -1.1481   -8.7046 C.1       1 <0>         0.2308
     36 N4         -1.4222   -0.6815   -9.7106 N.1       1 <0>        -0.3717
     37 F4          3.5335    2.1125   -0.0996 F         1 <0>        -0.1321
     38 H4          0.3563   -0.3757   -2.0965 H         1 <0>         0.1354
     39 H5          2.4699    0.8849   -2.1424 H         1 <0>         0.1458
     40 H6          2.0209    1.7964    2.0036 H         1 <0>         0.1480
     41 H7         -0.0902    0.5318    2.0553 H         1 <0>         0.1439
     42 H8         -3.8725   -1.8151    0.7715 H         1 <0>         0.0963
     43 H9         -3.7285   -1.4663   -0.9816 H         1 <0>         0.0846
     44 H10        -3.7241   -4.2298    1.4215 H         1 <0>         0.1204
     45 H11        -4.0643   -5.5370    0.2205 H         1 <0>         0.1131
     46 H12        -0.4733   -3.2203   -4.7969 H         1 <0>         0.1646
     47 H13         0.0666   -2.2132   -6.9721 H         1 <0>         0.1577
     48 H14        -4.6251   -2.4112   -5.4397 H         1 <0>         0.1770
@<TRIPOS>BOND
     1    1    6 ar
     2    1    2 ar
     3    1   38 1
     4    2    3 ar
     5    2   39 1
     6    3    4 ar
     7    3   37 1
     8    4    5 ar
     9    4   40 1
    10    5    6 ar
    11    5   41 1
    12    6    7 1
    13    7    8 1
    14    8    9 2
    15    8   10 am
    16   10   15 1
    17   10   11 1
    18   11   12 1
    19   11   42 1
    20   11   43 1
    21   12   13 1
    22   12   19 1
    23   12   14 1
    24   14   15 1
    25   14   44 1
    26   14   45 1
    27   15   16 1
    28   15   17 1
    29   17   18 1
    30   17   23 1
    31   17   19 1
    32   19   20 am
    33   20   21 2
    34   20   22 am
    35   22   23 am
    36   22   25 1
    37   23   24 2
    38   25   30 ar
    39   25   26 ar
    40   26   27 ar
    41   26   46 1
    42   27   28 ar
    43   27   47 1
    44   28   29 ar
    45   28   35 1
    46   29   30 ar
    47   29   31 1
    48   30   48 1
    49   31   32 1
    50   31   33 1
    51   31   34 1
    52   35   36 3
@<TRIPOS>MOLECULE
CHEMBL1163602
   42    44     0     0     0
SMALL
USER_CHARGES

@<TRIPOS>ATOM
      1 C1         -0.0169    1.3928    0.0097 C.ar      1 <0>        -0.0813
      2 C2          1.1655    2.0978    0.0022 C.ar      1 <0>        -0.0603
      3 C3          2.3864    1.4149   -0.0131 C.ar      1 <0>        -0.1445
      4 C4          2.4042    0.0161   -0.0207 C.ar      1 <0>        -0.0747
      5 C5          1.2207   -0.6870   -0.0132 C.ar      1 <0>        -0.0825
      6 C6          0.0021   -0.0041    0.0020 C.ar      1 <0>         0.0089
      7 C7         -1.2285   -0.7364    0.0098 C.1       1 <0>         0.2419
      8 N1         -2.2047   -1.3173    0.0159 N.1       1 <0>        -0.3955
      9 C8          3.6516    2.1678   -0.0216 C.2       1 <0>         0.3915
     10 O1          3.6356    3.3802   -0.0154 O.2       1 <0>        -0.4275
     11 C9          4.9664    1.4316   -0.0381 C.3       1 <0>        -0.1722
     12 C10         6.1161    2.4412   -0.0442 C.3       1 <0>         0.2148
     13 C11         7.4262    1.7097   -0.1844 C.2       1 <0>        -0.1473
     14 C12         8.0610    1.6365   -1.4101 C.2       1 <0>        -0.1547
     15 C13         9.2382    0.9709   -1.5019 C.2       1 <0>        -0.1644
     16 S1          9.4828    0.4196    0.1784 S.3       1 <0>         0.0488
     17 C14         8.0024    1.1184    0.8906 C.2       1 <0>        -0.1542
     18 N2          6.1101    3.1957    1.2115 N.pl3     1 <0>        -0.7152
     19 C15         6.6748    4.4722    1.2619 C.ar      1 <0>         0.2792
     20 C16         7.2374    5.0301    0.1209 C.ar      1 <0>        -0.1911
     21 C17         7.7944    6.2927    0.1741 C.ar      1 <0>        -0.0047
     22 C18         7.7926    7.0014    1.3616 C.ar      1 <0>        -0.1119
     23 C19         7.2334    6.4491    2.4993 C.ar      1 <0>        -0.0049
     24 C20         6.6699    5.1891    2.4518 C.ar      1 <0>        -0.1952
     25 N3          8.3910    8.3541    1.4150 N.pl3     1 <0>         0.0453
     26 O2          8.8806    8.8382    0.4212 O.2       1 <0>        -0.1748
     27 O3          8.3901    8.9749    2.4524 O.3       1 <0>        -0.1747
     28 H1         -0.9594    1.9198    0.0260 H         1 <0>         0.1419
     29 H2          1.1507    3.1776    0.0077 H         1 <0>         0.1457
     30 H3          3.3462   -0.5121   -0.0329 H         1 <0>         0.1438
     31 H4          1.2343   -1.7669   -0.0194 H         1 <0>         0.1421
     32 H5          5.0411    0.8014    0.8481 H         1 <0>         0.1112
     33 H6          5.0238    0.8103   -0.9318 H         1 <0>         0.1227
     34 H7          5.9921    3.1280   -0.8814 H         1 <0>         0.1003
     35 H8          7.6254    2.1024   -2.2816 H         1 <0>         0.1358
     36 H9          9.8653    0.8143   -2.3672 H         1 <0>         0.1879
     37 H10         7.6554    1.0793    1.9126 H         1 <0>         0.1817
     38 H11         5.7139    2.8088    2.0080 H         1 <0>         0.4043
     39 H12         7.2394    4.4769   -0.8067 H         1 <0>         0.1412
     40 H13         8.2323    6.7268   -0.7125 H         1 <0>         0.1498
     41 H14         7.2339    7.0051    3.4251 H         1 <0>         0.1508
     42 H15         6.2297    4.7599    3.3397 H         1 <0>         0.1420
@<TRIPOS>BOND
     1    1    6 ar
     2    1    2 ar
     3    1   28 1
     4    2    3 ar
     5    2   29 1
     6    3    4 ar
     7    3    9 1
     8    4    5 ar
     9    4   30 1
    10    5    6 ar
    11    5   31 1
    12    6    7 1
    13    7    8 3
    14    9   10 2
    15    9   11 1
    16   11   12 1
    17   11   32 1
    18   11   33 1
    19   12   13 1
    20   12   18 1
    21   12   34 1
    22   13   17 2
    23   13   14 1
    24   14   15 2
    25   14   35 1
    26   15   16 1
    27   15   36 1
    28   16   17 1
    29   17   37 1
    30   18   19 1
    31   18   38 1
    32   19   24 ar
    33   19   20 ar
    34   20   21 ar
    35   20   39 1
    36   21   22 ar
    37   21   40 1
    38   22   23 ar
    39   22   25 1
    40   23   24 ar
    41   23   41 1
    42   24   42 1
    43   25   26 2
    44   25   27 1
@<TRIPOS>MOLECULE
CHEMBL1163602__1
   42    44     0     0     0
SMALL
USER_CHARGES

@<TRIPOS>ATOM
      1 C1         -0.0169    1.3928    0.0097 C.ar      1 <0>        -0.0813
      2 C2          1.1655    2.0978    0.0022 C.ar      1 <0>        -0.0602
      3 C3          2.3864    1.4149   -0.0131 C.ar      1 <0>        -0.1445
      4 C4          2.4042    0.0161   -0.0207 C.ar      1 <0>        -0.0747
      5 C5          1.2207   -0.6870   -0.0132 C.ar      1 <0>        -0.0825
      6 C6          0.0021   -0.0041    0.0020 C.ar      1 <0>         0.0089
      7 C7         -1.2285   -0.7364    0.0098 C.1       1 <0>         0.2419
      8 N1         -2.2047   -1.3173    0.0159 N.1       1 <0>        -0.3955
      9 C8          3.6516    2.1678   -0.0216 C.2       1 <0>         0.3915
     10 O1          3.6356    3.3802   -0.0154 O.2       1 <0>        -0.4275
     11 C9          4.9664    1.4316   -0.0381 C.3       1 <0>        -0.1723
     12 C10         6.1161    2.4412   -0.0442 C.3       1 <0>         0.2149
     13 C11         7.4286    1.7084    0.0632 C.2       1 <0>        -0.1472
     14 C12         8.0820    1.6142    1.2777 C.2       1 <0>        -0.1549
     15 C13         9.2609    0.9481    1.3399 C.2       1 <0>        -0.1643
     16 S1          9.4803    0.4269   -0.3535 S.3       1 <0>         0.0486
     17 C14         7.9832    1.1272   -1.0285 C.2       1 <0>        -0.1542
     18 N2          6.0858    3.2083   -1.2919 N.pl3     1 <0>        -0.7151
     19 C15         6.6495    4.4852   -1.3405 C.ar      1 <0>         0.2793
     20 C16         7.2444    5.0271   -0.2082 C.ar      1 <0>        -0.1912
     21 C17         7.8013    6.2898   -0.2599 C.ar      1 <0>        -0.0047
     22 C18         7.7671    7.0147   -1.4370 C.ar      1 <0>        -0.1120
     23 C19         7.1757    6.4783   -2.5661 C.ar      1 <0>        -0.0049
     24 C20         6.6216    5.2140   -2.5228 C.ar      1 <0>        -0.1953
     25 N3          8.3645    8.3678   -1.4885 N.pl3     1 <0>         0.0453
     26 O2          8.8816    8.8383   -0.5021 O.2       1 <0>        -0.1748
     27 O3          8.3354    9.0027   -2.5170 O.3       1 <0>        -0.1747
     28 H1         -0.9594    1.9198    0.0260 H         1 <0>         0.1419
     29 H2          1.1507    3.1776    0.0077 H         1 <0>         0.1457
     30 H3          3.3462   -0.5121   -0.0329 H         1 <0>         0.1438
     31 H4          1.2343   -1.7669   -0.0194 H         1 <0>         0.1421
     32 H5          5.0411    0.8014    0.8481 H         1 <0>         0.1227
     33 H6          5.0238    0.8103   -0.9318 H         1 <0>         0.1112
     34 H7          6.0084    3.1196    0.8021 H         1 <0>         0.1003
     35 H8          7.6597    2.0649    2.1637 H         1 <0>         0.1359
     36 H9          9.9014    0.7774    2.1925 H         1 <0>         0.1878
     37 H10         7.6155    1.0965   -2.0435 H         1 <0>         0.1817
     38 H11         5.6742    2.8293   -2.0843 H         1 <0>         0.4043
     39 H12         7.2711    4.4617    0.7116 H         1 <0>         0.1412
     40 H13         8.2636    6.7119    0.6202 H         1 <0>         0.1498
     41 H14         7.1504    7.0471   -3.4838 H         1 <0>         0.1508
     42 H15         6.1635    4.7939   -3.4061 H         1 <0>         0.1420
@<TRIPOS>BOND
     1    1    6 ar
     2    1    2 ar
     3    1   28 1
     4    2    3 ar
     5    2   29 1
     6    3    4 ar
     7    3    9 1
     8    4    5 ar
     9    4   30 1
    10    5    6 ar
    11    5   31 1
    12    6    7 1
    13    7    8 3
    14    9   10 2
    15    9   11 1
    16   11   12 1
    17   11   32 1
    18   11   33 1
    19   12   13 1
    20   12   18 1
    21   12   34 1
    22   13   17 2
    23   13   14 1
    24   14   15 2
    25   14   35 1
    26   15   16 1
    27   15   36 1
    28   16   17 1
    29   17   37 1
    30   18   19 1
    31   18   38 1
    32   19   24 ar
    33   19   20 ar
    34   20   21 ar
    35   20   39 1
    36   21   22 ar
    37   21   40 1
    38   22   23 ar
    39   22   25 1
    40   23   24 ar
    41   23   41 1
    42   24   42 1
    43   25   26 2
    44   25   27 1
@<TRIPOS>MOLECULE
CHEMBL1163604
   47    49     0     0     0
SMALL
USER_CHARGES

@<TRIPOS>ATOM
      1 C1         -0.0184    1.5028    0.0103 C.3       1 <0>        -0.1243
      2 C2          0.0021   -0.0041    0.0020 C.ar      1 <0>        -0.0491
      3 C3          0.0056   -0.6858   -1.2025 C.ar      1 <0>        -0.1339
      4 C4          0.0238   -2.0645   -1.2184 C.ar      1 <0>        -0.0544
      5 C5          0.0392   -2.7739   -0.0132 C.ar      1 <0>        -0.1812
      6 C6          0.0359   -2.0776    1.1997 C.ar      1 <0>        -0.0692
      7 C7          0.0229   -0.6988    1.1989 C.ar      1 <0>        -0.1346
      8 C8          0.0582   -4.2454   -0.0213 C.2       1 <0>         0.3946
      9 O1          0.0605   -4.8459   -1.0747 O.2       1 <0>        -0.4379
     10 C9          0.0747   -5.0059    1.2796 C.3       1 <0>        -0.1720
     11 C10         0.0926   -6.5085    0.9918 C.3       1 <0>         0.1989
     12 C11        -0.0148   -7.2696    2.2880 C.ar      1 <0>        -0.1103
     13 C12         1.1021   -7.4385    3.0849 C.ar      1 <0>        -0.0994
     14 C13         1.0036   -8.1367    4.2739 C.ar      1 <0>        -0.1184
     15 C14        -0.2118   -8.6655    4.6663 C.ar      1 <0>        -0.1135
     16 C15        -1.3289   -8.4958    3.8698 C.ar      1 <0>        -0.1156
     17 C16        -1.2313   -7.7939    2.6829 C.ar      1 <0>        -0.1089
     18 N1          1.3457   -6.8621    0.3202 N.pl3     1 <0>        -0.7134
     19 C17         1.4057   -7.9947   -0.4950 C.ar      1 <0>         0.2799
     20 C18         0.2766   -8.7837   -0.6745 C.ar      1 <0>        -0.1922
     21 C19         0.3392   -9.9027   -1.4816 C.ar      1 <0>        -0.0041
     22 C20         1.5242  -10.2380   -2.1106 C.ar      1 <0>        -0.1132
     23 C21         2.6501   -9.4547   -1.9339 C.ar      1 <0>        -0.0046
     24 C22         2.5930   -8.3315   -1.1325 C.ar      1 <0>        -0.1957
     25 N2          1.5878  -11.4381   -2.9743 N.pl3     1 <0>         0.0460
     26 O2          0.6044  -12.1241   -3.1294 O.2       1 <0>        -0.1753
     27 O3          2.6231  -11.7325   -3.5249 O.3       1 <0>        -0.1754
     28 H1          1.0042    1.8801    0.0026 H         1 <0>         0.0776
     29 H2         -0.5455    1.8639   -0.8728 H         1 <0>         0.0717
     30 H3         -0.5286    1.8543    0.9071 H         1 <0>         0.0717
     31 H4         -0.0062   -0.1366   -2.1323 H         1 <0>         0.1301
     32 H5          0.0259   -2.5951   -2.1591 H         1 <0>         0.1336
     33 H6          0.0473   -2.6184    2.1344 H         1 <0>         0.1316
     34 H7          0.0248   -0.1596    2.1346 H         1 <0>         0.1302
     35 H8          0.9641   -4.7342    1.8480 H         1 <0>         0.1086
     36 H9         -0.8157   -4.7572    1.8571 H         1 <0>         0.1200
     37 H10        -0.7493   -6.7653    0.3488 H         1 <0>         0.1006
     38 H11         2.0517   -7.0254    2.7783 H         1 <0>         0.1183
     39 H12         1.8763   -8.2693    4.8961 H         1 <0>         0.1230
     40 H13        -0.2886   -9.2115    5.5949 H         1 <0>         0.1235
     41 H14        -2.2784   -8.9092    4.1762 H         1 <0>         0.1252
     42 H15        -2.1048   -7.6581    2.0625 H         1 <0>         0.1236
     43 H16         2.1337   -6.3097    0.4416 H         1 <0>         0.4044
     44 H17        -0.6491   -8.5226   -0.1833 H         1 <0>         0.1410
     45 H18        -0.5382  -10.5167   -1.6213 H         1 <0>         0.1500
     46 H19         3.5741   -9.7196   -2.4263 H         1 <0>         0.1507
     47 H20         3.4716   -7.7179   -0.9983 H         1 <0>         0.1417
@<TRIPOS>BOND
     1    1    2 1
     2    1   28 1
     3    1   29 1
     4    1   30 1
     5    2    7 ar
     6    2    3 ar
     7    3    4 ar
     8    3   31 1
     9    4    5 ar
    10    4   32 1
    11    5    6 ar
    12    5    8 1
    13    6    7 ar
    14    6   33 1
    15    7   34 1
    16    8    9 2
    17    8   10 1
    18   10   11 1
    19   10   35 1
    20   10   36 1
    21   11   12 1
    22   11   18 1
    23   11   37 1
    24   12   17 ar
    25   12   13 ar
    26   13   14 ar
    27   13   38 1
    28   14   15 ar
    29   14   39 1
    30   15   16 ar
    31   15   40 1
    32   16   17 ar
    33   16   41 1
    34   17   42 1
    35   18   19 1
    36   18   43 1
    37   19   24 ar
    38   19   20 ar
    39   20   21 ar
    40   20   44 1
    41   21   22 ar
    42   21   45 1
    43   22   23 ar
    44   22   25 1
    45   23   24 ar
    46   23   46 1
    47   24   47 1
    48   25   26 2
    49   25   27 1
@<TRIPOS>MOLECULE
CHEMBL1163604__1
   47    49     0     0     0
SMALL
USER_CHARGES

@<TRIPOS>ATOM
      1 C1         -0.0184    1.5028    0.0103 C.3       1 <0>        -0.1243
      2 C2          0.0021   -0.0041    0.0020 C.ar      1 <0>        -0.0491
      3 C3          0.0056   -0.6858   -1.2025 C.ar      1 <0>        -0.1339
      4 C4          0.0238   -2.0645   -1.2184 C.ar      1 <0>        -0.0544
      5 C5          0.0392   -2.7739   -0.0132 C.ar      1 <0>        -0.1812
      6 C6          0.0359   -2.0776    1.1997 C.ar      1 <0>        -0.0692
      7 C7          0.0229   -0.6988    1.1989 C.ar      1 <0>        -0.1346
      8 C8          0.0582   -4.2454   -0.0213 C.2       1 <0>         0.3946
      9 O1          0.0605   -4.8459   -1.0747 O.2       1 <0>        -0.4379
     10 C9          0.0747   -5.0059    1.2796 C.3       1 <0>        -0.1719
     11 C10         0.0926   -6.5085    0.9918 C.3       1 <0>         0.1989
     12 C11         0.2329   -7.2664    2.2867 C.ar      1 <0>        -0.1104
     13 C12        -0.8732   -7.4738    3.0895 C.ar      1 <0>        -0.0993
     14 C13        -0.7446   -8.1690    4.2773 C.ar      1 <0>        -0.1184
     15 C14         0.4901   -8.6572    4.6622 C.ar      1 <0>        -0.1134
     16 C15         1.5960   -8.4506    3.8590 C.ar      1 <0>        -0.1157
     17 C16         1.4665   -7.7591    2.6691 C.ar      1 <0>        -0.1089
     18 N1         -1.1577   -6.8945    0.3330 N.pl3     1 <0>        -0.7135
     19 C17        -1.1967   -8.0284   -0.4816 C.ar      1 <0>         0.2799
     20 C18        -0.0523   -8.7944   -0.6637 C.ar      1 <0>        -0.1923
     21 C19        -0.0945   -9.9153   -1.4694 C.ar      1 <0>        -0.0041
     22 C20        -1.2742  -10.2752   -2.0947 C.ar      1 <0>        -0.1132
     23 C21        -2.4153   -9.5148   -1.9157 C.ar      1 <0>        -0.0045
     24 C22        -2.3814   -8.3958   -1.1070 C.ar      1 <0>        -0.1958
     25 N2         -1.3156  -11.4768   -2.9579 N.pl3     1 <0>         0.0459
     26 O2         -0.3187  -12.1423   -3.1157 O.2       1 <0>        -0.1753
     27 O3         -2.3462  -11.7927   -3.5053 O.3       1 <0>        -0.1754
     28 H1          1.0042    1.8801    0.0026 H         1 <0>         0.0778
     29 H2         -0.5455    1.8639   -0.8728 H         1 <0>         0.0716
     30 H3         -0.5286    1.8543    0.9071 H         1 <0>         0.0716
     31 H4         -0.0062   -0.1366   -2.1323 H         1 <0>         0.1301
     32 H5          0.0259   -2.5951   -2.1591 H         1 <0>         0.1336
     33 H6          0.0473   -2.6184    2.1344 H         1 <0>         0.1316
     34 H7          0.0248   -0.1596    2.1346 H         1 <0>         0.1302
     35 H8          0.9641   -4.7342    1.8480 H         1 <0>         0.1199
     36 H9         -0.8157   -4.7572    1.8571 H         1 <0>         0.1087
     37 H10         0.9342   -6.7436    0.3402 H         1 <0>         0.1006
     38 H11        -1.8379   -7.0924    2.7888 H         1 <0>         0.1183
     39 H12        -1.6086   -8.3304    4.9048 H         1 <0>         0.1230
     40 H13         0.5907   -9.1997    5.5906 H         1 <0>         0.1235
     41 H14         2.5607   -8.8317    4.1599 H         1 <0>         0.1252
     42 H15         2.3299   -7.6008    2.0398 H         1 <0>         0.1236
     43 H16        -1.9584   -6.3626    0.4625 H         1 <0>         0.4044
     44 H17         0.8694   -8.5137   -0.1759 H         1 <0>         0.1410
     45 H18         0.7950  -10.5111   -1.6117 H         1 <0>         0.1500
     46 H19        -3.3349   -9.7985   -2.4058 H         1 <0>         0.1507
     47 H20        -3.2740   -7.8047   -0.9643 H         1 <0>         0.1417
@<TRIPOS>BOND
     1    1    2 1
     2    1   28 1
     3    1   29 1
     4    1   30 1
     5    2    7 ar
     6    2    3 ar
     7    3    4 ar
     8    3   31 1
     9    4    5 ar
    10    4   32 1
    11    5    6 ar
    12    5    8 1
    13    6    7 ar
    14    6   33 1
    15    7   34 1
    16    8    9 2
    17    8   10 1
    18   10   11 1
    19   10   35 1
    20   10   36 1
    21   11   12 1
    22   11   18 1
    23   11   37 1
    24   12   17 ar
    25   12   13 ar
    26   13   14 ar
    27   13   38 1
    28   14   15 ar
    29   14   39 1
    30   15   16 ar
    31   15   40 1
    32   16   17 ar
    33   16   41 1
    34   17   42 1
    35   18   19 1
    36   18   43 1
    37   19   24 ar
    38   19   20 ar
    39   20   21 ar
    40   20   44 1
    41   21   22 ar
    42   21   45 1
    43   22   23 ar
    44   22   25 1
    45   23   24 ar
    46   23   46 1
    47   24   47 1
    48   25   26 2
    49   25   27 1
@<TRIPOS>MOLECULE
CHEMBL243995
   35    37     0     0     0
SMALL
USER_CHARGES

@<TRIPOS>ATOM
      1 C1         -0.0188    1.5336    0.0105 C.3       1 <0>        -0.1313
      2 C2          1.5179    1.4762   -0.0045 C.3       1 <0>        -0.1291
      3 C3          1.3941    0.0896    0.6488 C.3       1 <0>         0.0253
      4 C4          0.0021   -0.0041    0.0020 C.3       1 <0>        -0.1249
      5 N1          1.3593    0.1316    2.1128 N.2       1 <0>        -0.4766
      6 C5          2.2689   -0.4835    2.8002 C.2       1 <0>         0.1889
      7 C6          2.2568   -0.4641    4.3146 C.3       1 <0>        -0.0812
      8 C7          2.5765   -1.8801    4.8016 C.3       1 <0>         0.1532
      9 C8          3.9439   -2.3160    4.2984 C.3       1 <0>        -0.0373
     10 C9          4.1101   -2.0640    2.8305 C.2       1 <0>        -0.1003
     11 C10         3.3506   -1.2333    2.1387 C.2       1 <0>        -0.1671
     12 C11         4.1678   -3.7778    4.5880 C.2       1 <0>        -0.1596
     13 C12         3.1450   -4.6264    4.5757 C.2       1 <0>        -0.0945
     14 C13         1.7864   -4.1303    4.3053 C.2       1 <0>         0.5520
     15 O1          0.8926   -4.9102    4.0374 O.2       1 <0>        -0.5143
     16 N2          1.5383   -2.8069    4.3567 N.am      1 <0>        -0.7130
     17 C14         5.5560   -4.2791    4.8920 C.3       1 <0>         0.5049
     18 F1          5.5132   -5.6578    5.1256 F         1 <0>        -0.1712
     19 F2          6.3955   -4.0162    3.8042 F         1 <0>        -0.1704
     20 F3          6.0482   -3.6287    6.0287 F         1 <0>        -0.1688
     21 H1         -0.4309    1.9596    0.9252 H         1 <0>         0.0858
     22 H2         -0.4483    1.9694   -0.8916 H         1 <0>         0.0664
     23 H3          1.9441    1.4499   -1.0074 H         1 <0>         0.0875
     24 H4          1.9889    2.2208    0.6373 H         1 <0>         0.0702
     25 H5          2.1053   -0.6404    0.2621 H         1 <0>         0.0651
     26 H6         -0.7506   -0.4545    0.6490 H         1 <0>         0.0726
     27 H7          0.0139   -0.4351   -0.9991 H         1 <0>         0.0868
     28 H8          3.0116    0.2317    4.6812 H         1 <0>         0.1145
     29 H9          2.6018   -1.8787    5.8913 H         1 <0>         0.0983
     30 H10         4.7048   -1.7478    4.8334 H         1 <0>         0.1260
     31 H11         4.8924   -2.5946    2.3081 H         1 <0>         0.1253
     32 H12         3.5271   -1.1006    1.0815 H         1 <0>         0.1320
     33 H13         3.3107   -5.6770    4.7633 H         1 <0>         0.1663
     34 H14         0.6671   -2.4683    4.0973 H         1 <0>         0.4133
     35 H15         1.2719   -0.1640    4.6724 H         1 <0>         0.1053
@<TRIPOS>BOND
     1    1    4 1
     2    1    2 1
     3    1   21 1
     4    1   22 1
     5    2    3 1
     6    2   23 1
     7    2   24 1
     8    3    4 1
     9    3    5 1
    10    3   25 1
    11    4   26 1
    12    4   27 1
    13    5    6 2
    14    6   11 1
    15    6    7 1
    16    7    8 1
    17    7   28 1
    18    7   35 1
    19    8   16 1
    20    8    9 1
    21    8   29 1
    22    9   10 1
    23    9   12 1
    24    9   30 1
    25   10   11 2
    26   10   31 1
    27   11   32 1
    28   12   13 2
    29   12   17 1
    30   13   14 1
    31   13   33 1
    32   14   15 2
    33   14   16 am
    34   16   34 1
    35   17   18 1
    36   17   19 1
    37   17   20 1
@<TRIPOS>MOLECULE
CHEMBL243995__1
   35    37     0     0     0
SMALL
USER_CHARGES

@<TRIPOS>ATOM
      1 C1         -0.2508    1.2860    0.1512 C.3       1 <0>        -0.1427
      2 C2          1.2783    1.3762    0.2873 C.3       1 <0>        -0.1282
      3 C3          1.2507   -0.1061    0.6957 C.3       1 <0>         0.0242
      4 C4         -0.0610   -0.2194   -0.0990 C.3       1 <0>        -0.1177
      5 N1          2.3499   -0.8915    0.1290 N.2       1 <0>        -0.4825
      6 C5          3.2663   -1.3771    0.9052 C.2       1 <0>         0.1882
      7 C6          4.3381   -2.3023    0.3590 C.3       1 <0>        -0.0773
      8 C7          4.5733   -3.3775    1.4224 C.3       1 <0>         0.1522
      9 C8          5.0875   -2.7044    2.6943 C.3       1 <0>        -0.0418
     10 C9          4.1272   -1.6613    3.1693 C.2       1 <0>        -0.1019
     11 C10         3.2977   -1.0404    2.3381 C.2       1 <0>        -0.1656
     12 C11         5.3519   -3.7557    3.7363 C.2       1 <0>        -0.1592
     13 C12         5.8830   -4.9169    3.3372 C.2       1 <0>        -0.0999
     14 C13         6.1957   -5.1086    1.9089 C.2       1 <0>         0.5525
     15 O1          7.0351   -5.9208    1.5699 O.2       1 <0>        -0.5092
     16 N2          5.5424   -4.3754    0.9774 N.am      1 <0>        -0.7170
     17 C14         5.0277   -3.5088    5.1872 C.3       1 <0>         0.5074
     18 F1          5.3683   -4.6378    5.9398 F         1 <0>        -0.1707
     19 F2          5.7551   -2.4055    5.6463 F         1 <0>        -0.1692
     20 F3          3.6588   -3.2539    5.3223 F         1 <0>        -0.1674
     21 H1         -0.7853    1.5112    1.0741 H         1 <0>         0.0825
     22 H2         -0.6452    1.8255   -0.7099 H         1 <0>         0.0749
     23 H3          1.7906    1.5594   -0.6572 H         1 <0>         0.0891
     24 H4          1.6072    2.0428    1.0846 H         1 <0>         0.0685
     25 H5          1.1267   -0.2614    1.7674 H         1 <0>         0.0835
     26 H6         -0.8133   -0.8410    0.3865 H         1 <0>         0.0690
     27 H7          0.0852   -0.4724   -1.1491 H         1 <0>         0.0911
     28 H8          3.9963   -2.7629   -0.5679 H         1 <0>         0.1051
     29 H9          3.6283   -3.8708    1.6496 H         1 <0>         0.0899
     30 H10         6.0353   -2.2179    2.4641 H         1 <0>         0.1228
     31 H11         4.1107   -1.4020    4.2175 H         1 <0>         0.1296
     32 H12         2.6326   -0.2798    2.7197 H         1 <0>         0.1329
     33 H13         6.0804   -5.7028    4.0512 H         1 <0>         0.1690
     34 H14         5.7143   -4.5104    0.0324 H         1 <0>         0.4162
     35 H15         5.2578   -1.7446    0.1826 H         1 <0>         0.1017
@<TRIPOS>BOND
     1    1    4 1
     2    1    2 1
     3    1   21 1
     4    1   22 1
     5    2    3 1
     6    2   23 1
     7    2   24 1
     8    3    4 1
     9    3    5 1
    10    3   25 1
    11    4   26 1
    12    4   27 1
    13    5    6 2
    14    6   11 1
    15    6    7 1
    16    7    8 1
    17    7   28 1
    18    7   35 1
    19    8   16 1
    20    8    9 1
    21    8   29 1
    22    9   10 1
    23    9   12 1
    24    9   30 1
    25   10   11 2
    26   10   31 1
    27   11   32 1
    28   12   13 2
    29   12   17 1
    30   13   14 1
    31   13   33 1
    32   14   15 2
    33   14   16 am
    34   16   34 1
    35   17   18 1
    36   17   19 1
    37   17   20 1
@<TRIPOS>MOLECULE
CHEMBL243995__2
   35    37     0     0     0
SMALL
USER_CHARGES

@<TRIPOS>ATOM
      1 C1          0.0082    1.5594    0.0051 C.3       1 <0>        -0.1426
      2 C2          1.5443    1.4858    0.0053 C.3       1 <0>        -0.1232
      3 C3          1.3992    0.0957    0.6466 C.3       1 <0>         0.0223
      4 C4          0.0130    0.0217   -0.0150 C.3       1 <0>        -0.1204
      5 N1          2.3499   -0.8915    0.1290 N.2       1 <0>        -0.4819
      6 C5          3.2663   -1.3771    0.9052 C.2       1 <0>         0.1882
      7 C6          4.3381   -2.3023    0.3590 C.3       1 <0>        -0.0772
      8 C7          5.6429   -1.9278    1.0656 C.3       1 <0>         0.1522
      9 C8          5.4773   -2.1760    2.5642 C.3       1 <0>        -0.0419
     10 C9          4.3169   -1.4042    3.1060 C.2       1 <0>        -0.1023
     11 C10         3.2977   -1.0404    2.3381 C.2       1 <0>        -0.1667
     12 C11         6.7647   -1.8407    3.2650 C.2       1 <0>        -0.1590
     13 C12         7.9129   -2.1657    2.6600 C.2       1 <0>        -0.1001
     14 C13         7.8665   -2.8441    1.3515 C.2       1 <0>         0.5525
     15 O1          8.8065   -3.5199    0.9790 O.2       1 <0>        -0.5092
     16 N2          6.7715   -2.7096    0.5674 N.am      1 <0>        -0.7170
     17 C14         6.7618   -1.1593    4.6091 C.3       1 <0>         0.5074
     18 F1          8.0797   -0.9635    5.0356 F         1 <0>        -0.1708
     19 F2          6.1172    0.0778    4.5034 F         1 <0>        -0.1674
     20 F3          6.0857   -1.9597    5.5362 F         1 <0>        -0.1692
     21 H1         -0.4087    1.9829    0.9188 H         1 <0>         0.0825
     22 H2         -0.4073    2.0066   -0.8979 H         1 <0>         0.0751
     23 H3          1.9804    1.4626   -0.9934 H         1 <0>         0.0897
     24 H4          2.0165    2.2205    0.6575 H         1 <0>         0.0693
     25 H5          1.3625    0.1190    1.7357 H         1 <0>         0.0824
     26 H6         -0.7510   -0.4256    0.6208 H         1 <0>         0.0682
     27 H7          0.0305   -0.4018   -1.0192 H         1 <0>         0.0910
     28 H8          4.0812   -3.3393    0.5752 H         1 <0>         0.1019
     29 H9          5.8439   -0.8678    0.9104 H         1 <0>         0.0899
     30 H10         5.2828   -3.2379    2.7151 H         1 <0>         0.1226
     31 H11         4.3104   -1.1313    4.1509 H         1 <0>         0.1295
     32 H12         2.4753   -0.4918    2.7730 H         1 <0>         0.1338
     33 H13         8.8605   -1.9340    3.1234 H         1 <0>         0.1690
     34 H14         6.7368   -3.1248   -0.3085 H         1 <0>         0.4161
     35 H15         4.4418   -2.1590   -0.7165 H         1 <0>         0.1051
@<TRIPOS>BOND
     1    1    4 1
     2    1    2 1
     3    1   21 1
     4    1   22 1
     5    2    3 1
     6    2   23 1
     7    2   24 1
     8    3    4 1
     9    3    5 1
    10    3   25 1
    11    4   26 1
    12    4   27 1
    13    5    6 2
    14    6   11 1
    15    6    7 1
    16    7    8 1
    17    7   28 1
    18    7   35 1
    19    8   16 1
    20    8    9 1
    21    8   29 1
    22    9   10 1
    23    9   12 1
    24    9   30 1
    25   10   11 2
    26   10   31 1
    27   11   32 1
    28   12   13 2
    29   12   17 1
    30   13   14 1
    31   13   33 1
    32   14   15 2
    33   14   16 am
    34   16   34 1
    35   17   18 1
    36   17   19 1
    37   17   20 1
@<TRIPOS>MOLECULE
CHEMBL243995__3
   35    37     0     0     0
SMALL
USER_CHARGES

@<TRIPOS>ATOM
      1 C1         -0.0188    1.5336    0.0105 C.3       1 <0>        -0.1426
      2 C2          1.5179    1.4762   -0.0045 C.3       1 <0>        -0.1236
      3 C3          1.3941    0.0896    0.6488 C.3       1 <0>         0.0228
      4 C4          0.0021   -0.0041    0.0020 C.3       1 <0>        -0.1193
      5 N1          2.3499   -0.8915    0.1290 N.2       1 <0>        -0.4840
      6 C5          3.2041   -1.4494    0.9273 C.2       1 <0>         0.1842
      7 C6          4.2091   -2.4624    0.4194 C.3       1 <0>        -0.0815
      8 C7          4.2666   -3.6098    1.4316 C.3       1 <0>         0.1531
      9 C8          4.6958   -3.0908    2.7951 C.3       1 <0>        -0.0367
     10 C9          3.9164   -1.8790    3.2070 C.2       1 <0>        -0.1013
     11 C10         3.2390   -1.1180    2.3622 C.2       1 <0>        -0.1665
     12 C11         4.5430   -4.1677    3.8381 C.2       1 <0>        -0.1597
     13 C12         3.5663   -5.0633    3.7366 C.2       1 <0>        -0.0945
     14 C13         2.6493   -5.0181    2.5869 C.2       1 <0>         0.5519
     15 O1          1.6115   -5.6518    2.6071 O.2       1 <0>        -0.5146
     16 N2          2.9657   -4.2701    1.5117 N.am      1 <0>        -0.7128
     17 C14         5.5004   -4.2290    5.0002 C.3       1 <0>         0.5048
     18 F1          5.1607   -5.3043    5.8281 F         1 <0>        -0.1712
     19 F2          6.8037   -4.4022    4.5221 F         1 <0>        -0.1688
     20 F3          5.4257   -3.0374    5.7294 F         1 <0>        -0.1705
     21 H1         -0.4309    1.9596    0.9252 H         1 <0>         0.0819
     22 H2         -0.4483    1.9694   -0.8916 H         1 <0>         0.0750
     23 H3          1.9441    1.4499   -1.0074 H         1 <0>         0.0899
     24 H4          1.9889    2.2208    0.6373 H         1 <0>         0.0678
     25 H5          1.3682    0.1209    1.7381 H         1 <0>         0.0797
     26 H6         -0.7506   -0.4545    0.6490 H         1 <0>         0.0677
     27 H7          0.0139   -0.4351   -0.9991 H         1 <0>         0.0909
     28 H8          3.8921   -2.8422   -0.5518 H         1 <0>         0.1048
     29 H9          5.0081   -4.3354    1.0972 H         1 <0>         0.0978
     30 H10         5.7506   -2.8205    2.7443 H         1 <0>         0.1259
     31 H11         3.9103   -1.6085    4.2526 H         1 <0>         0.1249
     32 H12         2.7058   -0.2523    2.7264 H         1 <0>         0.1312
     33 H13         3.4464   -5.8223    4.4956 H         1 <0>         0.1662
     34 H14         2.3272   -4.1692    0.7885 H         1 <0>         0.4134
     35 H15         5.1909   -1.9970    0.3324 H         1 <0>         0.1137
@<TRIPOS>BOND
     1    1    4 1
     2    1    2 1
     3    1   21 1
     4    1   22 1
     5    2    3 1
     6    2   23 1
     7    2   24 1
     8    3    4 1
     9    3    5 1
    10    3   25 1
    11    4   26 1
    12    4   27 1
    13    5    6 2
    14    6   11 1
    15    6    7 1
    16    7    8 1
    17    7   28 1
    18    7   35 1
    19    8   16 1
    20    8    9 1
    21    8   29 1
    22    9   10 1
    23    9   12 1
    24    9   30 1
    25   10   11 2
    26   10   31 1
    27   11   32 1
    28   12   13 2
    29   12   17 1
    30   13   14 1
    31   13   33 1
    32   14   15 2
    33   14   16 am
    34   16   34 1
    35   17   18 1
    36   17   19 1
    37   17   20 1
@<TRIPOS>MOLECULE
CHEMBL398189
   38    40     0     0     0
SMALL
USER_CHARGES

@<TRIPOS>ATOM
      1 C1         -0.1955    1.2983    0.2225 C.3       1 <0>        -0.1218
      2 C2          1.2012    1.9389    0.0285 C.3       1 <0>        -0.1245
      3 C3          1.8633    1.0058   -1.0155 C.3       1 <0>        -0.1096
      4 C4          1.3826   -0.4057   -0.6201 C.3       1 <0>         0.0517
      5 C5          0.0735   -0.2197    0.1671 C.3       1 <0>        -0.1150
      6 N1          1.1362   -1.2069   -1.8215 N.2       1 <0>        -0.4883
      7 C6          1.7065   -2.3620   -1.9580 C.2       1 <0>         0.1839
      8 C7          1.5984   -3.1441   -3.2505 C.3       1 <0>        -0.0813
      9 C8          2.9822   -3.7192   -3.5646 C.3       1 <0>         0.1539
     10 C9          3.4419   -4.6345   -2.4403 C.3       1 <0>        -0.0369
     11 C10         3.2759   -3.9987   -1.0935 C.2       1 <0>        -0.1015
     12 C11         2.4900   -2.9617   -0.8642 C.2       1 <0>        -0.1662
     13 C12         4.8833   -5.0262   -2.6392 C.2       1 <0>        -0.1594
     14 C13         5.7349   -4.1780   -3.2063 C.2       1 <0>        -0.0948
     15 C14         5.2605   -2.8631   -3.6656 C.2       1 <0>         0.5520
     16 O1          6.0581   -1.9884   -3.9445 O.2       1 <0>        -0.5146
     17 N2          3.9373   -2.6339   -3.7759 N.am      1 <0>        -0.7128
     18 C15         5.3609   -6.3842   -2.1932 C.3       1 <0>         0.5047
     19 F1          6.7237   -6.5167   -2.4804 F         1 <0>        -0.1712
     20 F2          5.1593   -6.5201   -0.8155 F         1 <0>        -0.1704
     21 F3          4.6431   -7.3763   -2.8697 F         1 <0>        -0.1688
     22 H1         -0.6119    1.5768    1.1905 H         1 <0>         0.0671
     23 H2         -0.8671    1.5963   -0.5827 H         1 <0>         0.0688
     24 H3          1.1104    2.9525   -0.3620 H         1 <0>         0.0711
     25 H4          1.7623    1.9326    0.9630 H         1 <0>         0.0675
     26 H5          1.5242    1.2566   -2.0207 H         1 <0>         0.0783
     27 H6          2.9494    1.0709   -0.9509 H         1 <0>         0.0645
     28 H7          2.1294   -0.8924    0.0071 H         1 <0>         0.0602
     29 H8          0.1851   -0.6162    1.1763 H         1 <0>         0.0655
     30 H9         -0.7451   -0.7256   -0.3449 H         1 <0>         0.0716
     31 H10         0.8795   -3.9550   -3.1325 H         1 <0>         0.1124
     32 H11         2.9168   -4.3114   -4.4774 H         1 <0>         0.0981
     33 H12         2.8405   -5.5431   -2.4684 H         1 <0>         0.1257
     34 H13         3.8334   -4.4090   -0.2645 H         1 <0>         0.1249
     35 H14         2.4189   -2.5539    0.1333 H         1 <0>         0.1313
     36 H15         6.7721   -4.4528   -3.3292 H         1 <0>         0.1661
     37 H16         3.6177   -1.7450   -3.9964 H         1 <0>         0.4132
     38 H17         1.2814   -2.4829   -4.0570 H         1 <0>         0.1048
@<TRIPOS>BOND
     1    1    5 1
     2    1    2 1
     3    1   22 1
     4    1   23 1
     5    2    3 1
     6    2   24 1
     7    2   25 1
     8    3    4 1
     9    3   26 1
    10    3   27 1
    11    4    5 1
    12    4    6 1
    13    4   28 1
    14    5   29 1
    15    5   30 1
    16    6    7 2
    17    7   12 1
    18    7    8 1
    19    8    9 1
    20    8   31 1
    21    8   38 1
    22    9   17 1
    23    9   10 1
    24    9   32 1
    25   10   11 1
    26   10   13 1
    27   10   33 1
    28   11   12 2
    29   11   34 1
    30   12   35 1
    31   13   14 2
    32   13   18 1
    33   14   15 1
    34   14   36 1
    35   15   16 2
    36   15   17 am
    37   17   37 1
    38   18   19 1
    39   18   20 1
    40   18   21 1
@<TRIPOS>MOLECULE
CHEMBL398189__1
   38    40     0     0     0
SMALL
USER_CHARGES

@<TRIPOS>ATOM
      1 C1          0.4459    1.7614    0.0796 C.3       1 <0>        -0.1235
      2 C2          1.9553    2.0391    0.2357 C.3       1 <0>        -0.1246
      3 C3          2.5276    0.7178    0.8064 C.3       1 <0>        -0.1086
      4 C4          1.7090   -0.3617    0.0557 C.3       1 <0>         0.0472
      5 C5          0.2892    0.2350   -0.0348 C.3       1 <0>        -0.1132
      6 N1          1.6915   -1.6134    0.8167 N.2       1 <0>        -0.4850
      7 C6          2.1638   -2.6985    0.2898 C.2       1 <0>         0.1879
      8 C7          2.2726   -3.9748    1.1035 C.3       1 <0>        -0.0768
      9 C8          3.5863   -4.6451    0.6948 C.3       1 <0>         0.1523
     10 C9          3.5152   -4.9976   -0.7903 C.3       1 <0>        -0.0418
     11 C10         3.2393   -3.7800   -1.6132 C.2       1 <0>        -0.1020
     12 C11         2.6025   -2.7259   -1.1153 C.2       1 <0>        -0.1680
     13 C12         4.7893   -5.6855   -1.1956 C.2       1 <0>        -0.1591
     14 C13         5.3402   -6.5472   -0.3333 C.2       1 <0>        -0.1001
     15 C14         4.6735   -6.7932    0.9588 C.2       1 <0>         0.5526
     16 O1          4.8732   -7.8296    1.5630 O.2       1 <0>        -0.5092
     17 N2          3.8382   -5.8580    1.4684 N.am      1 <0>        -0.7170
     18 C15         5.4271   -5.4118   -2.5333 C.3       1 <0>         0.5074
     19 F1          6.5930   -6.1748   -2.6589 F         1 <0>        -0.1708
     20 F2          4.5340   -5.7535   -3.5544 F         1 <0>        -0.1691
     21 F3          5.7465   -4.0531   -2.6284 F         1 <0>        -0.1674
     22 H1         -0.0934    2.1277    0.9532 H         1 <0>         0.0673
     23 H2          0.0687    2.2441   -0.8220 H         1 <0>         0.0658
     24 H3          2.4041    2.2626   -0.7322 H         1 <0>         0.0669
     25 H4          2.1221    2.8599    0.9332 H         1 <0>         0.0709
     26 H5          3.5893    0.6261    0.5777 H         1 <0>         0.0659
     27 H6          2.3560    0.6549    1.8810 H         1 <0>         0.0786
     28 H7          2.1180   -0.5259   -0.9412 H         1 <0>         0.0662
     29 H8         -0.3260   -0.1396    0.7833 H         1 <0>         0.0751
     30 H9         -0.1639   -0.0232   -0.9919 H         1 <0>         0.0631
     31 H10         2.2896   -3.7385    2.1674 H         1 <0>         0.1052
     32 H11         4.4085   -3.9457    0.8456 H         1 <0>         0.0899
     33 H12         2.6959   -5.7018   -0.9354 H         1 <0>         0.1227
     34 H13         3.5631   -3.7586   -2.6433 H         1 <0>         0.1295
     35 H14         2.4074   -1.8737   -1.7494 H         1 <0>         0.1352
     36 H15         6.2603   -7.0561   -0.5803 H         1 <0>         0.1690
     37 H16         3.4151   -5.9907    2.3312 H         1 <0>         0.4161
     38 H17         1.4328   -4.6326    0.8798 H         1 <0>         0.1017
@<TRIPOS>BOND
     1    1    5 1
     2    1    2 1
     3    1   22 1
     4    1   23 1
     5    2    3 1
     6    2   24 1
     7    2   25 1
     8    3    4 1
     9    3   26 1
    10    3   27 1
    11    4    5 1
    12    4    6 1
    13    4   28 1
    14    5   29 1
    15    5   30 1
    16    6    7 2
    17    7   12 1
    18    7    8 1
    19    8    9 1
    20    8   31 1
    21    8   38 1
    22    9   17 1
    23    9   10 1
    24    9   32 1
    25   10   11 1
    26   10   13 1
    27   10   33 1
    28   11   12 2
    29   11   34 1
    30   12   35 1
    31   13   14 2
    32   13   18 1
    33   14   15 1
    34   14   36 1
    35   15   16 2
    36   15   17 am
    37   17   37 1
    38   18   19 1
    39   18   20 1
    40   18   21 1
@<TRIPOS>MOLECULE
CHEMBL398189__2
   38    40     0     0     0
SMALL
USER_CHARGES

@<TRIPOS>ATOM
      1 C1          0.1710    1.6682    0.1811 C.3       1 <0>        -0.1237
      2 C2          1.6511    1.9711   -0.1310 C.3       1 <0>        -0.1245
      3 C3          2.4085    0.7133    0.3624 C.3       1 <0>        -0.1144
      4 C4          1.4464   -0.4379   -0.0226 C.3       1 <0>         0.0488
      5 C5          0.0409    0.1365    0.2500 C.3       1 <0>        -0.1092
      6 N1          1.6915   -1.6134    0.8167 N.2       1 <0>        -0.4856
      7 C6          2.1638   -2.6985    0.2898 C.2       1 <0>         0.1881
      8 C7          2.2726   -3.9748    1.1035 C.3       1 <0>        -0.0769
      9 C8          1.8936   -5.1253    0.1682 C.3       1 <0>         0.1524
     10 C9          2.8982   -5.1726   -0.9823 C.3       1 <0>        -0.0420
     11 C10         2.9391   -3.8652   -1.7066 C.2       1 <0>        -0.1017
     12 C11         2.6025   -2.7259   -1.1153 C.2       1 <0>        -0.1672
     13 C12         2.5534   -6.3197   -1.8913 C.2       1 <0>        -0.1590
     14 C13         2.1279   -7.4584   -1.3328 C.2       1 <0>        -0.1001
     15 C14         2.0294   -7.5432    0.1362 C.2       1 <0>         0.5526
     16 O1          2.0700   -8.6247    0.6908 O.2       1 <0>        -0.5091
     17 N2          1.8932   -6.4097    0.8633 N.am      1 <0>        -0.7170
     18 C15         2.6838   -6.1905   -3.3871 C.3       1 <0>         0.5073
     19 F1          2.3029   -7.3922   -3.9939 F         1 <0>        -0.1708
     20 F2          1.8569   -5.1569   -3.8398 F         1 <0>        -0.1674
     21 F3          4.0127   -5.9027   -3.7162 F         1 <0>        -0.1691
     22 H1         -0.1068    2.1099    1.1381 H         1 <0>         0.0673
     23 H2         -0.4657    2.0617   -0.6112 H         1 <0>         0.0660
     24 H3          1.7949    2.1069   -1.2029 H         1 <0>         0.0670
     25 H4          1.9829    2.8545    0.4144 H         1 <0>         0.0703
     26 H5          3.3622    0.6089   -0.1548 H         1 <0>         0.0653
     27 H6          2.5552    0.7493    1.4419 H         1 <0>         0.0777
     28 H7          1.5571   -0.6911   -1.0770 H         1 <0>         0.0665
     29 H8         -0.3001   -0.1651    1.2404 H         1 <0>         0.0765
     30 H9         -0.6591   -0.2133   -0.5088 H         1 <0>         0.0638
     31 H10         3.2948   -4.1044    1.4591 H         1 <0>         0.1016
     32 H11         0.9022   -4.9403   -0.2453 H         1 <0>         0.0898
     33 H12         3.8868   -5.3640   -0.5649 H         1 <0>         0.1227
     34 H13         3.2471   -3.8483   -2.7416 H         1 <0>         0.1295
     35 H14         2.6558   -1.8027   -1.6732 H         1 <0>         0.1341
     36 H15         1.8600   -8.3038   -1.9492 H         1 <0>         0.1690
     37 H16         1.7974   -6.4497    1.8277 H         1 <0>         0.4161
     38 H17         1.5845   -3.9385    1.9481 H         1 <0>         0.1052
@<TRIPOS>BOND
     1    1    5 1
     2    1    2 1
     3    1   22 1
     4    1   23 1
     5    2    3 1
     6    2   24 1
     7    2   25 1
     8    3    4 1
     9    3   26 1
    10    3   27 1
    11    4    5 1
    12    4    6 1
    13    4   28 1
    14    5   29 1
    15    5   30 1
    16    6    7 2
    17    7   12 1
    18    7    8 1
    19    8    9 1
    20    8   31 1
    21    8   38 1
    22    9   17 1
    23    9   10 1
    24    9   32 1
    25   10   11 1
    26   10   13 1
    27   10   33 1
    28   11   12 2
    29   11   34 1
    30   12   35 1
    31   13   14 2
    32   13   18 1
    33   14   15 1
    34   14   36 1
    35   15   16 2
    36   15   17 am
    37   17   37 1
    38   18   19 1
    39   18   20 1
    40   18   21 1
@<TRIPOS>MOLECULE
CHEMBL398189__3
   38    40     0     0     0
SMALL
USER_CHARGES

@<TRIPOS>ATOM
      1 C1         -0.1819    1.4878   -0.0247 C.3       1 <0>        -0.1223
      2 C2          1.3089    1.7638    0.2923 C.3       1 <0>        -0.1244
      3 C3          2.0442    0.7272   -0.5931 C.3       1 <0>        -0.1155
      4 C4          1.1535   -0.5304   -0.5222 C.3       1 <0>         0.0521
      5 C5         -0.2619   -0.0468   -0.1609 C.3       1 <0>        -0.1102
      6 N1          1.1362   -1.2069   -1.8215 N.2       1 <0>        -0.4883
      7 C6          1.7065   -2.3620   -1.9580 C.2       1 <0>         0.1835
      8 C7          1.5984   -3.1441   -3.2505 C.3       1 <0>        -0.0813
      9 C8          1.3422   -4.6096   -2.8886 C.3       1 <0>         0.1537
     10 C9          2.4856   -5.1537   -2.0461 C.3       1 <0>        -0.0367
     11 C10         2.8331   -4.2391   -0.9110 C.2       1 <0>        -0.1014
     12 C11         2.4900   -2.9617   -0.8642 C.2       1 <0>        -0.1662
     13 C12         2.1374   -6.5172   -1.5072 C.2       1 <0>        -0.1596
     14 C13         0.8781   -6.8150   -1.2041 C.2       1 <0>        -0.0947
     15 C14        -0.1819   -5.8180   -1.4221 C.2       1 <0>         0.5520
     16 O1         -1.2785   -5.9715   -0.9193 O.2       1 <0>        -0.5146
     17 N2          0.0696   -4.7338   -2.1815 N.am      1 <0>        -0.7128
     18 C15         3.2206   -7.5462   -1.3109 C.3       1 <0>         0.5048
     19 F1          2.6593   -8.7235   -0.8049 F         1 <0>        -0.1712
     20 F2          3.8377   -7.8136   -2.5377 F         1 <0>        -0.1689
     21 F3          4.1706   -7.0569   -0.4080 F         1 <0>        -0.1704
     22 H1         -0.8157    1.8318    0.7926 H         1 <0>         0.0674
     23 H2         -0.4686    1.9692   -0.9597 H         1 <0>         0.0686
     24 H3          1.5830    2.7794    0.0066 H         1 <0>         0.0704
     25 H4          1.5184    1.5884    1.3475 H         1 <0>         0.0679
     26 H5          2.1170    1.0857   -1.6198 H         1 <0>         0.0762
     27 H6          3.0349    0.5161   -0.1905 H         1 <0>         0.0644
     28 H7          1.5243   -1.2078    0.2470 H         1 <0>         0.0605
     29 H8         -0.5779   -0.4894    0.7837 H         1 <0>         0.0655
     30 H9         -0.9617   -0.3154   -0.9522 H         1 <0>         0.0746
     31 H10         0.7701   -2.7606   -3.8462 H         1 <0>         0.1047
     32 H11         1.2914   -5.1939   -3.8073 H         1 <0>         0.0980
     33 H12         3.3632   -5.2593   -2.6839 H         1 <0>         0.1259
     34 H13         3.3995   -4.6444   -0.0856 H         1 <0>         0.1248
     35 H14         2.7820   -2.3566   -0.0186 H         1 <0>         0.1313
     36 H15         0.6335   -7.7860   -0.7994 H         1 <0>         0.1661
     37 H16        -0.5964   -4.0328   -2.2586 H         1 <0>         0.4132
     38 H17         2.5286   -3.0596   -3.8123 H         1 <0>         0.1126
@<TRIPOS>BOND
     1    1    5 1
     2    1    2 1
     3    1   22 1
     4    1   23 1
     5    2    3 1
     6    2   24 1
     7    2   25 1
     8    3    4 1
     9    3   26 1
    10    3   27 1
    11    4    5 1
    12    4    6 1
    13    4   28 1
    14    5   29 1
    15    5   30 1
    16    6    7 2
    17    7   12 1
    18    7    8 1
    19    8    9 1
    20    8   31 1
    21    8   38 1
    22    9   17 1
    23    9   10 1
    24    9   32 1
    25   10   11 1
    26   10   13 1
    27   10   33 1
    28   11   12 2
    29   11   34 1
    30   12   35 1
    31   13   14 2
    32   13   18 1
    33   14   15 1
    34   14   36 1
    35   15   16 2
    36   15   17 am
    37   17   37 1
    38   18   19 1
    39   18   20 1
    40   18   21 1
@<TRIPOS>MOLECULE
CHEMBL10560
   45    47     0     0     0
SMALL
USER_CHARGES

@<TRIPOS>ATOM
      1 C1         -0.0187    1.5258    0.0104 C.3       1 <0>        -0.1632
      2 C2          0.0021   -0.0041    0.0020 C.3       1 <0>        -0.1204
      3 C3          0.7421   -0.5109    1.2415 C.3       1 <0>        -0.0105
      4 C4          0.0015   -0.0327    2.4886 C.3       1 <0>        -0.1060
      5 C5         -1.4412   -0.5458    2.4345 C.3       1 <0>        -0.1421
      6 C6         -1.4511   -2.0732    2.3699 C.3       1 <0>         0.2539
      7 C7         -0.6823   -2.5502    1.1334 C.3       1 <0>        -0.0973
      8 C8          0.7544   -2.0386    1.2189 C.3       1 <0>        -0.0739
      9 H1          1.2191   -2.4116    2.1316 H         1 <0>         0.0768
     10 C9          1.5716   -2.4925    0.0091 C.3       1 <0>        -0.1171
     11 C10         3.0400   -2.1619    0.2741 C.3       1 <0>        -0.0808
     12 C11         3.2023   -0.7418    0.7488 C.ar      1 <0>        -0.0565
     13 C12         2.1467    0.0212    1.2202 C.ar      1 <0>        -0.0688
     14 C13         2.3632    1.3206    1.6573 C.ar      1 <0>        -0.0979
     15 C14         3.6317    1.8615    1.6520 C.ar      1 <0>        -0.1498
     16 C15         4.7008    1.0995    1.2043 C.ar      1 <0>         0.1018
     17 C16         4.4787   -0.1968    0.7231 C.ar      1 <0>        -0.1474
     18 O1          5.9545    1.6239    1.1909 O.3       1 <0>        -0.4996
     19 C17        -0.8151   -2.6175    3.5807 C.1       1 <0>        -0.2144
     20 C18        -0.3078   -3.0516    4.5464 C.1       1 <0>        -0.1649
     21 C19         0.3282   -3.5959    5.7572 C.3       1 <0>        -0.0458
     22 O2         -2.8011   -2.5360    2.2969 O.3       1 <0>        -0.5495
     23 H2          1.0039    1.9031    0.0027 H         1 <0>         0.0625
     24 H3         -0.5459    1.8868   -0.8726 H         1 <0>         0.0541
     25 H4         -0.5289    1.8773    0.9072 H         1 <0>         0.0562
     26 H5         -1.0205   -0.3814    0.0098 H         1 <0>         0.0755
     27 H6          0.5123   -0.3556   -0.8948 H         1 <0>         0.0680
     28 H7          0.4949   -0.4232    3.3786 H         1 <0>         0.0671
     29 H8          0.0007    1.0570    2.5176 H         1 <0>         0.0751
     30 H9         -1.9754   -0.2179    3.3263 H         1 <0>         0.0686
     31 H10        -1.9354   -0.1431    1.5503 H         1 <0>         0.0863
     32 H11        -0.6808   -3.6398    1.1021 H         1 <0>         0.0750
     33 H12        -1.1570   -2.1576    0.2342 H         1 <0>         0.0856
     34 H13         1.4560   -3.5674   -0.1305 H         1 <0>         0.0720
     35 H14         1.2313   -1.9666   -0.8829 H         1 <0>         0.0741
     36 H15         3.4268   -2.8394    1.0353 H         1 <0>         0.0770
     37 H16         3.6084   -2.2981   -0.6459 H         1 <0>         0.0775
     38 H17         1.5303    1.9136    2.0053 H         1 <0>         0.1284
     39 H18         3.7918    2.8732    1.9943 H         1 <0>         0.1275
     40 H19         5.3069   -0.7900    0.3643 H         1 <0>         0.1267
     41 H20         6.4501    1.4793    2.0085 H         1 <0>         0.3901
     42 H21         0.3219   -4.6849    5.7126 H         1 <0>         0.0819
     43 H22         1.3569   -3.2407    5.8182 H         1 <0>         0.0816
     44 H23        -0.2232   -3.2651    6.6373 H         1 <0>         0.0815
     45 H24        -3.3467   -2.2781    3.0524 H         1 <0>         0.3807
@<TRIPOS>BOND
     1    1    2 1
     2    1   23 1
     3    1   24 1
     4    1   25 1
     5    2    3 1
     6    2   26 1
     7    2   27 1
     8    3    8 1
     9    3   13 1
    10    3    4 1
    11    4    5 1
    12    4   28 1
    13    4   29 1
    14    5    6 1
    15    5   30 1
    16    5   31 1
    17    6    7 1
    18    6   19 1
    19    6   22 1
    20    7    8 1
    21    7   32 1
    22    7   33 1
    23    8    9 1
    24    8   10 1
    25   10   11 1
    26   10   34 1
    27   10   35 1
    28   11   12 1
    29   11   36 1
    30   11   37 1
    31   12   17 ar
    32   12   13 ar
    33   13   14 ar
    34   14   15 ar
    35   14   38 1
    36   15   16 ar
    37   15   39 1
    38   16   17 ar
    39   16   18 1
    40   17   40 1
    41   18   41 1
    42   19   20 3
    43   20   21 1
    44   21   42 1
    45   21   43 1
    46   21   44 1
    47   22   45 1
@<TRIPOS>MOLECULE
CHEMBL257151
   37    40     0     0     0
SMALL
USER_CHARGES

@<TRIPOS>ATOM
      1 C1         -0.0184    1.5032    0.0103 C.3       1 <0>        -0.1329
      2 C2          0.0021   -0.0041    0.0020 C.2       1 <0>         0.0120
      3 C3         -0.1029   -0.6259   -1.2055 C.2       1 <0>        -0.2219
      4 C4         -0.0204   -2.0279   -1.3001 C.2       1 <0>         0.5381
      5 O1         -0.2090   -2.5731   -2.3722 O.2       1 <0>        -0.5331
      6 N1          0.2781   -2.7708   -0.2225 N.am      1 <0>        -0.6330
      7 H1          0.4365   -3.7224   -0.3263 H         1 <0>         0.4169
      8 C5          0.3440   -2.2068    1.0338 C.ar      1 <0>         0.1886
      9 C6          0.1307   -0.8156    1.2094 C.ar      1 <0>        -0.0967
     10 C7         -0.0088   -0.3342    2.5068 C.ar      1 <0>        -0.0541
     11 C8          0.3703   -1.1405    3.5912 C.ar      1 <0>        -0.0620
     12 C9          0.6584   -2.4843    3.3939 C.ar      1 <0>        -0.0522
     13 C10         0.6331   -3.0176    2.1260 C.ar      1 <0>        -0.1612
     14 C11         0.4910   -0.4780    4.9127 C.ar      1 <0>        -0.1000
     15 C12         1.4357   -0.7908    5.8718 C.ar      1 <0>        -0.0493
     16 C13         1.4002   -0.1558    7.1050 C.ar      1 <0>        -0.1187
     17 C14         0.4648    0.8265    7.3667 C.ar      1 <0>        -0.0869
     18 C15        -0.4353    1.2049    6.3863 C.ar      1 <0>        -0.1361
     19 C16        -0.4092    0.5766    5.1599 C.ar      1 <0>         0.1128
     20 O2         -1.1977    0.9826    4.1310 O.3       1 <0>        -0.3083
     21 C17        -0.5663    1.0238    2.8400 C.3       1 <0>         0.1030
     22 C18         2.5514   -1.7714    5.6126 C.3       1 <0>         0.1143
     23 O3          3.3637   -1.8890    6.7823 O.3       1 <0>        -0.5673
     24 H2          0.6463    1.8713    0.7919 H         1 <0>         0.0790
     25 H3          0.3169    1.8765   -0.9573 H         1 <0>         0.0858
     26 H4         -1.0331    1.8518    0.2024 H         1 <0>         0.0889
     27 H5         -0.2505   -0.0302   -2.0947 H         1 <0>         0.1574
     28 H6          0.8631   -3.1381    4.2291 H         1 <0>         0.1394
     29 H7          0.8387   -4.0681    1.9787 H         1 <0>         0.1410
     30 H8          2.1151   -0.4367    7.8652 H         1 <0>         0.1406
     31 H9          0.4346    1.3011    8.3354 H         1 <0>         0.1341
     32 H10        -1.1510    1.9888    6.5854 H         1 <0>         0.1362
     33 H11         0.2248    1.7633    2.8528 H         1 <0>         0.0866
     34 H12        -1.3455    1.2895    2.1253 H         1 <0>         0.1251
     35 H13         2.1289   -2.7451    5.3642 H         1 <0>         0.0630
     36 H14         3.1607   -1.4170    4.7812 H         1 <0>         0.0643
     37 H15         4.1030   -2.5050    6.6875 H         1 <0>         0.3866
@<TRIPOS>BOND
     1    1    2 1
     2    1   24 1
     3    1   25 1
     4    1   26 1
     5    2    9 1
     6    2    3 2
     7    3    4 1
     8    3   27 1
     9    4    5 2
    10    4    6 am
    11    6    7 1
    12    6    8 1
    13    8   13 ar
    14    8    9 ar
    15    9   10 ar
    16   10   21 1
    17   10   11 ar
    18   11   12 ar
    19   11   14 1
    20   12   13 ar
    21   12   28 1
    22   13   29 1
    23   14   19 ar
    24   14   15 ar
    25   15   16 ar
    26   15   22 1
    27   16   17 ar
    28   16   30 1
    29   17   18 ar
    30   17   31 1
    31   18   19 ar
    32   18   32 1
    33   19   20 1
    34   20   21 1
    35   21   33 1
    36   21   34 1
    37   22   23 1
    38   22   35 1
    39   22   36 1
    40   23   37 1
@<TRIPOS>MOLECULE
CHEMBL1163620
   57    60     0     0     0
SMALL
USER_CHARGES

@<TRIPOS>ATOM
      1 C1         -0.0323    1.4271    0.0091 C.ar      1 <0>        -0.0848
      2 C2          1.1628    2.1224    0.0037 C.ar      1 <0>        -0.1198
      3 C3          2.3626    1.4366   -0.0178 C.ar      1 <0>        -0.0810
      4 C4          2.3690    0.0545   -0.0342 C.ar      1 <0>        -0.1351
      5 C5          1.1731   -0.6428   -0.0288 C.ar      1 <0>         0.1011
      6 C6         -0.0284    0.0454   -0.0070 C.ar      1 <0>        -0.1492
      7 F1          1.1782   -1.9937   -0.0454 F         1 <0>        -0.1375
      8 C7          3.6643    2.1959   -0.0236 C.3       1 <0>         0.1991
      9 C8          4.2150    2.2530   -1.4499 C.3       1 <0>        -0.1735
     10 C9          5.4508    3.1151   -1.4772 C.2       1 <0>         0.3998
     11 O1          5.8516    3.6330   -0.4561 O.2       1 <0>        -0.4502
     12 C10         6.1692    3.3281   -2.7389 C.ar      1 <0>        -0.2418
     13 C11         5.7047    2.7355   -3.9206 C.ar      1 <0>        -0.0178
     14 C12         6.3760    2.9367   -5.0925 C.ar      1 <0>        -0.2163
     15 C13         7.5211    3.7297   -5.1144 C.ar      1 <0>         0.2587
     16 C14         7.9865    4.3208   -3.9418 C.ar      1 <0>        -0.2160
     17 C15         7.3183    4.1292   -2.7665 C.ar      1 <0>        -0.0020
     18 N1          8.2011    3.9313   -6.3086 N.pl3     1 <0>        -0.6205
     19 C16         7.8017    3.2250   -7.5362 C.3       1 <0>         0.0795
     20 C17         7.6494    4.2567   -8.6597 C.3       1 <0>         0.0452
     21 O2          8.8393    5.0450   -8.7394 O.3       1 <0>        -0.3771
     22 C18         9.1144    5.8100   -7.5634 C.3       1 <0>         0.0456
     23 C19         9.3382    4.8621   -6.3850 C.3       1 <0>         0.0795
     24 N2          4.6291    1.5179    0.8456 N.pl3     1 <0>        -0.7135
     25 C20         4.6372    1.7794    2.2176 C.ar      1 <0>         0.2792
     26 C21         3.7273    2.6778    2.7604 C.ar      1 <0>        -0.1929
     27 C22         3.7376    2.9337    4.1175 C.ar      1 <0>        -0.0041
     28 C23         4.6525    2.2968    4.9358 C.ar      1 <0>        -0.1126
     29 C24         5.5597    1.4019    4.3988 C.ar      1 <0>        -0.0045
     30 C25         5.5514    1.1374    3.0433 C.ar      1 <0>        -0.1946
     31 N3          4.6610    2.5739    6.3897 N.pl3     1 <0>         0.0457
     32 O3          3.8687    3.3564    6.8606 O.2       1 <0>        -0.1751
     33 O4          5.4603    2.0179    7.1064 O.3       1 <0>        -0.1752
     34 H1         -0.9692    1.9640    0.0303 H         1 <0>         0.1369
     35 H2          1.1587    3.2024    0.0158 H         1 <0>         0.1323
     36 H3          3.3066   -0.4812   -0.0517 H         1 <0>         0.1320
     37 H4         -0.9620   -0.4976   -0.0024 H         1 <0>         0.1372
     38 H5          3.4956    3.2090    0.3415 H         1 <0>         0.1054
     39 H6          4.4671    1.2461   -1.7826 H         1 <0>         0.1072
     40 H7          3.4615    2.6769   -2.1137 H         1 <0>         0.1191
     41 H8          4.8172    2.1203   -3.9044 H         1 <0>         0.1299
     42 H9          6.0188    2.4800   -6.0037 H         1 <0>         0.1294
     43 H10         8.8749    4.9346   -3.9632 H         1 <0>         0.1290
     44 H11         7.6772    4.5915   -1.8588 H         1 <0>         0.1325
     45 H12         8.5672    2.4978   -7.8068 H         1 <0>         0.0773
     46 H13         6.8517    2.7158   -7.3741 H         1 <0>         0.0968
     47 H14         7.4894    3.7422   -9.6072 H         1 <0>         0.1085
     48 H15         6.7979    4.9032   -8.4474 H         1 <0>         0.0576
     49 H16        10.0085    6.4129   -7.7221 H         1 <0>         0.1093
     50 H17         8.2683    6.4621   -7.3470 H         1 <0>         0.0573
     51 H18         9.4053    5.4364   -5.4610 H         1 <0>         0.0966
     52 H19        10.2611    4.3025   -6.5378 H         1 <0>         0.0768
     53 H20         5.2624    0.8874    0.4684 H         1 <0>         0.4055
     54 H21         3.0127    3.1758    2.1218 H         1 <0>         0.1414
     55 H22         3.0307    3.6324    4.5401 H         1 <0>         0.1503
     56 H23         6.2731    0.9065    5.0406 H         1 <0>         0.1509
     57 H24         6.2574    0.4353    2.6251 H         1 <0>         0.1421
@<TRIPOS>BOND
     1    1    6 ar
     2    1    2 ar
     3    1   34 1
     4    2    3 ar
     5    2   35 1
     6    3    4 ar
     7    3    8 1
     8    4    5 ar
     9    4   36 1
    10    5    6 ar
    11    5    7 1
    12    6   37 1
    13    8    9 1
    14    8   24 1
    15    8   38 1
    16    9   10 1
    17    9   39 1
    18    9   40 1
    19   10   11 2
    20   10   12 1
    21   12   17 ar
    22   12   13 ar
    23   13   14 ar
    24   13   41 1
    25   14   15 ar
    26   14   42 1
    27   15   16 ar
    28   15   18 1
    29   16   17 ar
    30   16   43 1
    31   17   44 1
    32   18   23 1
    33   18   19 1
    34   19   20 1
    35   19   45 1
    36   19   46 1
    37   20   21 1
    38   20   47 1
    39   20   48 1
    40   21   22 1
    41   22   23 1
    42   22   49 1
    43   22   50 1
    44   23   51 1
    45   23   52 1
    46   24   25 1
    47   24   53 1
    48   25   30 ar
    49   25   26 ar
    50   26   27 ar
    51   26   54 1
    52   27   28 ar
    53   27   55 1
    54   28   29 ar
    55   28   31 1
    56   29   30 ar
    57   29   56 1
    58   30   57 1
    59   31   32 2
    60   31   33 1
@<TRIPOS>MOLECULE
CHEMBL1163620__1
   57    60     0     0     0
SMALL
USER_CHARGES

@<TRIPOS>ATOM
      1 C1         -0.0005    1.3282    0.0079 C.ar      1 <0>        -0.0847
      2 C2          1.1795    2.0489    0.0029 C.ar      1 <0>        -0.1197
      3 C3          2.3937    1.3887   -0.0185 C.ar      1 <0>        -0.0810
      4 C4          2.4295    0.0071   -0.0353 C.ar      1 <0>        -0.1351
      5 C5          1.2487   -0.7155   -0.0302 C.ar      1 <0>         0.1010
      6 C6          0.0328   -0.0531   -0.0084 C.ar      1 <0>        -0.1491
      7 F1          1.2825   -2.0660   -0.0471 F         1 <0>        -0.1376
      8 C7          3.6789    2.1756   -0.0239 C.3       1 <0>         0.1990
      9 C8          4.2606    2.2120    1.3907 C.3       1 <0>        -0.1734
     10 C9          5.4783    3.0997    1.4104 C.2       1 <0>         0.3998
     11 O1          5.8448    3.6493    0.3930 O.2       1 <0>        -0.4502
     12 C10         6.2207    3.2993    2.6605 C.ar      1 <0>        -0.2418
     13 C11         5.8025    2.6608    3.8355 C.ar      1 <0>        -0.0178
     14 C12         6.4965    2.8489    4.9963 C.ar      1 <0>        -0.2164
     15 C13         7.6187    3.6742    5.0135 C.ar      1 <0>         0.2587
     16 C14         8.0380    4.3109    3.8474 C.ar      1 <0>        -0.2160
     17 C15         7.3530    4.1242    2.6811 C.ar      1 <0>        -0.0020
     18 N1          8.3213    3.8630    6.1965 N.pl3     1 <0>        -0.6204
     19 C16         7.8336    3.2996    7.4654 C.3       1 <0>         0.0795
     20 C17         8.9835    2.5319    8.1273 C.3       1 <0>         0.0451
     21 O2         10.1308    3.3811    8.2091 O.3       1 <0>        -0.3770
     22 C18        10.6409    3.7994    6.9408 C.3       1 <0>         0.0456
     23 C19         9.5787    4.6272    6.2171 C.3       1 <0>         0.0795
     24 N2          4.6377    1.5386   -0.9301 N.pl3     1 <0>        -0.7135
     25 C20         4.6090    1.8314   -2.2955 C.ar      1 <0>         0.2792
     26 C21         3.6757    2.7309   -2.7950 C.ar      1 <0>        -0.1927
     27 C22         3.6503    3.0186   -4.1455 C.ar      1 <0>        -0.0040
     28 C23         4.5527    2.4124   -5.0002 C.ar      1 <0>        -0.1126
     29 C24         5.4831    1.5165   -4.5062 C.ar      1 <0>        -0.0046
     30 C25         5.5174    1.2283   -3.1560 C.ar      1 <0>        -0.1947
     31 N3          4.5223    2.7227   -6.4470 N.pl3     1 <0>         0.0458
     32 O3          3.7091    3.5054   -6.8804 O.2       1 <0>        -0.1750
     33 O4          5.3105    2.1935   -7.1955 O.3       1 <0>        -0.1752
     34 H1         -0.9486    1.8450    0.0291 H         1 <0>         0.1369
     35 H2          1.1524    3.1285    0.0153 H         1 <0>         0.1324
     36 H3          3.3783   -0.5085   -0.0526 H         1 <0>         0.1320
     37 H4         -0.8890   -0.6158   -0.0042 H         1 <0>         0.1372
     38 H5          3.4806    3.1929   -0.3615 H         1 <0>         0.1054
     39 H6          3.5137    2.6044    2.0807 H         1 <0>         0.1192
     40 H7          4.5414    1.2034    1.6941 H         1 <0>         0.1071
     41 H8          4.9324    2.0211    3.8231 H         1 <0>         0.1299
     42 H9          6.1747    2.3574    5.9026 H         1 <0>         0.1293
     43 H10         8.9083    4.9501    3.8652 H         1 <0>         0.1289
     44 H11         7.6813    4.6146    1.7766 H         1 <0>         0.1325
     45 H12         7.5039    4.1048    8.1219 H         1 <0>         0.0774
     46 H13         7.0032    2.6209    7.2706 H         1 <0>         0.0968
     47 H14         8.6863    2.2240    9.1298 H         1 <0>         0.1086
     48 H15         9.2240    1.6514    7.5315 H         1 <0>         0.0574
     49 H16        11.5360    4.4033    7.0896 H         1 <0>         0.1093
     50 H17        10.8874    2.9235    6.3406 H         1 <0>         0.0571
     51 H18         9.9035    4.8271    5.1960 H         1 <0>         0.0966
     52 H19         9.4277    5.5683    6.7458 H         1 <0>         0.0770
     53 H20         5.2925    0.9134   -0.5818 H         1 <0>         0.4055
     54 H21         2.9704    3.2044   -2.1281 H         1 <0>         0.1414
     55 H22         2.9247    3.7175   -4.5346 H         1 <0>         0.1503
     56 H23         6.1862    1.0445   -5.1766 H         1 <0>         0.1509
     57 H24         6.2470    0.5316   -2.7703 H         1 <0>         0.1421
@<TRIPOS>BOND
     1    1    6 ar
     2    1    2 ar
     3    1   34 1
     4    2    3 ar
     5    2   35 1
     6    3    4 ar
     7    3    8 1
     8    4    5 ar
     9    4   36 1
    10    5    6 ar
    11    5    7 1
    12    6   37 1
    13    8    9 1
    14    8   24 1
    15    8   38 1
    16    9   10 1
    17    9   39 1
    18    9   40 1
    19   10   11 2
    20   10   12 1
    21   12   17 ar
    22   12   13 ar
    23   13   14 ar
    24   13   41 1
    25   14   15 ar
    26   14   42 1
    27   15   16 ar
    28   15   18 1
    29   16   17 ar
    30   16   43 1
    31   17   44 1
    32   18   23 1
    33   18   19 1
    34   19   20 1
    35   19   45 1
    36   19   46 1
    37   20   21 1
    38   20   47 1
    39   20   48 1
    40   21   22 1
    41   22   23 1
    42   22   49 1
    43   22   50 1
    44   23   51 1
    45   23   52 1
    46   24   25 1
    47   24   53 1
    48   25   30 ar
    49   25   26 ar
    50   26   27 ar
    51   26   54 1
    52   27   28 ar
    53   27   55 1
    54   28   29 ar
    55   28   31 1
    56   29   30 ar
    57   29   56 1
    58   30   57 1
    59   31   32 2
    60   31   33 1
@<TRIPOS>MOLECULE
CHEMBL157407
   43    46     0     0     0
SMALL
USER_CHARGES

@<TRIPOS>ATOM
      1 C1         -0.0187    1.5258    0.0104 C.3       1 <0>        -0.1566
      2 C2          0.0021   -0.0041    0.0020 C.3       1 <0>         0.1584
      3 C3         -1.4294   -0.5610    0.0547 C.3       1 <0>        -0.1230
      4 C4         -1.3572   -1.6743    1.1335 C.3       1 <0>        -0.1343
      5 C5         -0.2745   -1.1134    2.0963 C.3       1 <0>         0.1137
      6 N1          0.7126   -0.5186    1.1913 N.pl3     1 <0>        -0.6167
      7 C6          2.0942   -0.4519    1.3183 C.ar      1 <0>         0.3076
      8 C7          2.7018   -0.6266    2.5484 C.ar      1 <0>        -0.2491
      9 C8          4.0848   -0.5648    2.6484 C.ar      1 <0>         0.2453
     10 C9          4.8509   -0.3274    1.4897 C.ar      1 <0>        -0.1701
     11 C10         4.2147   -0.1496    0.2554 C.ar      1 <0>        -0.0173
     12 C11         2.8514   -0.2038    0.1673 C.ar      1 <0>        -0.1619
     13 C12         2.1991    0.0223   -1.1701 C.3       1 <0>        -0.0736
     14 C13         0.7718   -0.5223   -1.2162 C.3       1 <0>        -0.1231
     15 C14         6.2650   -0.2703    1.5934 C.2       1 <0>        -0.0591
     16 C15         6.8471   -0.4421    2.8059 C.2       1 <0>        -0.1730
     17 C16         6.0566   -0.6753    3.9501 C.2       1 <0>         0.5368
     18 O1          6.5964   -0.8255    5.0327 O.2       1 <0>        -0.5237
     19 N2          4.7143   -0.7340    3.8642 N.am      1 <0>        -0.5162
     20 C17         3.9175   -0.9790    5.0689 C.3       1 <0>         0.0637
     21 C18         7.1098   -0.0221    0.3704 C.3       1 <0>         0.5061
     22 F1          8.4613   -0.0112    0.7316 F         1 <0>        -0.1688
     23 F2          6.8853   -1.0376   -0.5653 F         1 <0>        -0.1680
     24 F3          6.7669    1.2129   -0.1904 F         1 <0>        -0.1681
     25 H1          1.0039    1.9031    0.0027 H         1 <0>         0.0633
     26 H2         -0.5459    1.8868   -0.8726 H         1 <0>         0.0699
     27 H3         -0.5289    1.8773    0.9072 H         1 <0>         0.0600
     28 H4         -2.1316    0.2169    0.3544 H         1 <0>         0.0807
     29 H5         -1.7119   -0.9815   -0.9104 H         1 <0>         0.0836
     30 H6         -2.3137   -1.7850    1.6443 H         1 <0>         0.0855
     31 H7         -1.0382   -2.6206    0.6966 H         1 <0>         0.0765
     32 H8         -0.7003   -0.3542    2.7523 H         1 <0>         0.0685
     33 H9          0.1747   -1.9176    2.6791 H         1 <0>         0.0768
     34 H10         2.1025   -0.8101    3.4279 H         1 <0>         0.1376
     35 H11         4.8037    0.0322   -0.6314 H         1 <0>         0.1338
     36 H12         2.1762    1.0924   -1.3761 H         1 <0>         0.0780
     37 H13         2.7912   -0.4718   -1.9404 H         1 <0>         0.0795
     38 H14         0.7962   -1.6118   -1.1961 H         1 <0>         0.0719
     39 H15         0.2814   -0.1836   -2.1288 H         1 <0>         0.0806
     40 H16         7.9225   -0.4005    2.8958 H         1 <0>         0.1673
     41 H17         3.7751   -2.0519    5.1984 H         1 <0>         0.0760
     42 H18         4.4376   -0.5742    5.9371 H         1 <0>         0.0954
     43 H19         2.9470   -0.4932    4.9677 H         1 <0>         0.0859
@<TRIPOS>BOND
     1    1    2 1
     2    1   25 1
     3    1   26 1
     4    1   27 1
     5    2    6 1
     6    2   14 1
     7    2    3 1
     8    3    4 1
     9    3   28 1
    10    3   29 1
    11    4    5 1
    12    4   30 1
    13    4   31 1
    14    5    6 1
    15    5   32 1
    16    5   33 1
    17    6    7 1
    18    7   12 ar
    19    7    8 ar
    20    8    9 ar
    21    8   34 1
    22    9   19 1
    23    9   10 ar
    24   10   11 ar
    25   10   15 1
    26   11   12 ar
    27   11   35 1
    28   12   13 1
    29   13   14 1
    30   13   36 1
    31   13   37 1
    32   14   38 1
    33   14   39 1
    34   15   16 2
    35   15   21 1
    36   16   17 1
    37   16   40 1
    38   17   18 2
    39   17   19 am
    40   19   20 1
    41   20   41 1
    42   20   42 1
    43   20   43 1
    44   21   22 1
    45   21   23 1
    46   21   24 1
@<TRIPOS>MOLECULE
CHEMBL157407__1
   43    46     0     0     0
SMALL
USER_CHARGES

@<TRIPOS>ATOM
      1 C1         -0.0187    1.5258    0.0104 C.3       1 <0>        -0.1551
      2 C2          0.0021   -0.0041    0.0020 C.3       1 <0>         0.1583
      3 C3          0.7657   -0.5325   -1.2240 C.3       1 <0>        -0.1225
      4 C4          2.2193   -0.6315   -0.6810 C.3       1 <0>        -0.1314
      5 C5          1.9854   -1.1150    0.7722 C.3       1 <0>         0.1149
      6 N1          0.7113   -0.5270    1.1889 N.pl3     1 <0>        -0.6177
      7 C6          0.1479   -0.4825    2.4602 C.ar      1 <0>         0.3058
      8 C7          0.9333   -0.6452    3.5868 C.ar      1 <0>        -0.2472
      9 C8          0.3478   -0.6075    4.8448 C.ar      1 <0>         0.2444
     10 C9         -1.0426   -0.4056    4.9533 C.ar      1 <0>        -0.1692
     11 C10        -1.8173   -0.2392    3.7992 C.ar      1 <0>        -0.0180
     12 C11        -1.2316   -0.2711    2.5639 C.ar      1 <0>        -0.1609
     13 C12        -2.0914   -0.0604    1.3466 C.3       1 <0>        -0.0735
     14 C13        -1.4202   -0.5667    0.0700 C.3       1 <0>        -0.1239
     15 C14        -1.6400   -0.3725    6.2401 C.2       1 <0>        -0.0594
     16 C15        -0.8588   -0.5327    7.3368 C.2       1 <0>        -0.1724
     17 C16         0.5306   -0.7302    7.1998 C.2       1 <0>         0.5367
     18 O1          1.2183   -0.8709    8.1965 O.2       1 <0>        -0.5237
     19 N2          1.1089   -0.7661    5.9844 N.am      1 <0>        -0.5162
     20 C17         2.5546   -0.9744    5.8716 C.3       1 <0>         0.0639
     21 C18        -3.1249   -0.1613    6.3861 C.3       1 <0>         0.5061
     22 F1         -3.4659   -0.1687    7.7429 F         1 <0>        -0.1688
     23 F2         -3.4784    1.0697    5.8231 F         1 <0>        -0.1681
     24 F3         -3.8091   -1.1887    5.7277 F         1 <0>        -0.1680
     25 H1          1.0039    1.9031    0.0027 H         1 <0>         0.0605
     26 H2         -0.5459    1.8868   -0.8726 H         1 <0>         0.0697
     27 H3         -0.5289    1.8773    0.9072 H         1 <0>         0.0635
     28 H4          0.3937   -1.5129   -1.5216 H         1 <0>         0.0800
     29 H5          0.7070    0.1727   -2.0530 H         1 <0>         0.0870
     30 H6          2.7975   -1.3623   -1.2465 H         1 <0>         0.0867
     31 H7          2.7071    0.3432   -0.6936 H         1 <0>         0.0784
     32 H8          1.9247   -2.2030    0.8012 H         1 <0>         0.0648
     33 H9          2.7902   -0.7654    1.4188 H         1 <0>         0.0685
     34 H10         1.9974   -0.8013    3.4883 H         1 <0>         0.1378
     35 H11        -2.8829   -0.0854    3.8849 H         1 <0>         0.1339
     36 H12        -3.0345   -0.5892    1.4840 H         1 <0>         0.0796
     37 H13        -2.2975    1.0046    1.2393 H         1 <0>         0.0780
     38 H14        -1.9874   -0.2315   -0.7984 H         1 <0>         0.0810
     39 H15        -1.3817   -1.6559    0.0850 H         1 <0>         0.0719
     40 H16        -1.3033   -0.5086    8.3208 H         1 <0>         0.1674
     41 H17         3.0628   -0.0102    5.8852 H         1 <0>         0.0761
     42 H18         2.9010   -1.5795    6.7095 H         1 <0>         0.0954
     43 H19         2.7757   -1.4886    4.9363 H         1 <0>         0.0856
@<TRIPOS>BOND
     1    1    2 1
     2    1   25 1
     3    1   26 1
     4    1   27 1
     5    2    6 1
     6    2   14 1
     7    2    3 1
     8    3    4 1
     9    3   28 1
    10    3   29 1
    11    4    5 1
    12    4   30 1
    13    4   31 1
    14    5    6 1
    15    5   32 1
    16    5   33 1
    17    6    7 1
    18    7   12 ar
    19    7    8 ar
    20    8    9 ar
    21    8   34 1
    22    9   19 1
    23    9   10 ar
    24   10   11 ar
    25   10   15 1
    26   11   12 ar
    27   11   35 1
    28   12   13 1
    29   13   14 1
    30   13   36 1
    31   13   37 1
    32   14   38 1
    33   14   39 1
    34   15   16 2
    35   15   21 1
    36   16   17 1
    37   16   40 1
    38   17   18 2
    39   17   19 am
    40   19   20 1
    41   20   41 1
    42   20   42 1
    43   20   43 1
    44   21   22 1
    45   21   23 1
    46   21   24 1
@<TRIPOS>MOLECULE
CHEMBL345854
   43    46     0     0     0
SMALL
USER_CHARGES

@<TRIPOS>ATOM
      1 C1         -0.0169    1.3955    0.0097 C.ar      1 <0>        -0.0153
      2 C2          1.1549    2.1005    0.0023 C.ar      1 <0>        -0.1614
      3 C3          2.3758    1.4272   -0.0140 C.ar      1 <0>         0.2909
      4 C4          2.4156    0.0393   -0.0296 C.ar      1 <0>        -0.2515
      5 C5          1.2345   -0.6872   -0.0210 C.ar      1 <0>         0.2445
      6 C6          0.0021   -0.0041    0.0020 C.ar      1 <0>        -0.1707
      7 C7         -1.2050   -0.7491    0.0189 C.2       1 <0>        -0.0573
      8 C8         -1.1465   -2.1039    0.0091 C.2       1 <0>        -0.1731
      9 C9          0.0997   -2.7630   -0.0185 C.2       1 <0>         0.5413
     10 N1          1.2520   -2.0670   -0.0341 N.am      1 <0>        -0.6245
     11 O1          0.1342   -3.9815   -0.0281 O.2       1 <0>        -0.5246
     12 C10        -2.5363   -0.0436    0.0478 C.3       1 <0>         0.5056
     13 F1         -3.5659   -0.9907    0.0601 F         1 <0>        -0.1686
     14 F2         -2.6187    0.7498    1.1972 F         1 <0>        -0.1678
     15 F3         -2.6602    0.7652   -1.0870 F         1 <0>        -0.1678
     16 N2          3.5797    2.1330   -0.0054 N.pl3     1 <0>        -0.7199
     17 C11         3.5649    3.5758   -0.2672 C.3       1 <0>         0.1794
     18 C12         3.3650    3.8291   -1.7605 C.3       1 <0>        -0.1284
     19 C13         4.5252    3.2130   -2.5451 C.3       1 <0>        -0.1177
     20 C14         5.8421    3.8433   -2.0875 C.3       1 <0>        -0.1218
     21 C15         6.0419    3.5781   -0.5938 C.3       1 <0>        -0.1207
     22 C16         4.8838    4.1964    0.1923 C.3       1 <0>        -0.1208
     23 C17         2.4050    4.1941    0.5206 C.3       1 <0>        -0.1278
     24 C18         1.0900    3.6061    0.0094 C.3       1 <0>        -0.0749
     25 H1         -0.9605    1.9206    0.0261 H         1 <0>         0.1340
     26 H2          3.3656   -0.4740   -0.0487 H         1 <0>         0.1357
     27 H3         -2.0593   -2.6811    0.0230 H         1 <0>         0.1675
     28 H4          4.4161    1.6748    0.1720 H         1 <0>         0.4044
     29 H5          2.4275    3.3762   -2.0832 H         1 <0>         0.0706
     30 H6          3.3315    4.9028   -1.9452 H         1 <0>         0.0738
     31 H7          4.5551    2.1383   -2.3656 H         1 <0>         0.0626
     32 H8          4.3837    3.3997   -3.6097 H         1 <0>         0.0628
     33 H9          6.6684    3.4061   -2.6479 H         1 <0>         0.0628
     34 H10         5.8113    4.9184   -2.2647 H         1 <0>         0.0639
     35 H11         6.0688    2.5030   -0.4160 H         1 <0>         0.0593
     36 H12         6.9815    4.0242   -0.2679 H         1 <0>         0.0677
     37 H13         4.8594    5.2720    0.0171 H         1 <0>         0.0814
     38 H14         5.0240    4.0051    1.2562 H         1 <0>         0.0710
     39 H15         2.5200    3.9646    1.5800 H         1 <0>         0.0735
     40 H16         2.4017    5.2747    0.3778 H         1 <0>         0.0822
     41 H17         0.9049    3.9637   -1.0035 H         1 <0>         0.0793
     42 H18         0.2748    3.9287    0.6571 H         1 <0>         0.0804
     43 H19         2.0996   -2.5382   -0.0551 H         1 <0>         0.4199
@<TRIPOS>BOND
     1    1    6 ar
     2    1    2 ar
     3    1   25 1
     4    2   24 1
     5    2    3 ar
     6    3    4 ar
     7    3   16 1
     8    4    5 ar
     9    4   26 1
    10    5   10 1
    11    5    6 ar
    12    6    7 1
    13    7    8 2
    14    7   12 1
    15    8    9 1
    16    8   27 1
    17    9   10 am
    18    9   11 2
    19   10   43 1
    20   12   13 1
    21   12   14 1
    22   12   15 1
    23   16   17 1
    24   16   28 1
    25   17   22 1
    26   17   18 1
    27   17   23 1
    28   18   19 1
    29   18   29 1
    30   18   30 1
    31   19   20 1
    32   19   31 1
    33   19   32 1
    34   20   21 1
    35   20   33 1
    36   20   34 1
    37   21   22 1
    38   21   35 1
    39   21   36 1
    40   22   37 1
    41   22   38 1
    42   23   24 1
    43   23   39 1
    44   23   40 1
    45   24   41 1
    46   24   42 1
@<TRIPOS>MOLECULE
CHEMBL320690
   50    54     0     0     0
SMALL
USER_CHARGES

@<TRIPOS>ATOM
      1 C1         -0.0183    1.5004    0.0103 C.3       1 <0>        -0.1394
      2 C2          0.0021   -0.0041    0.0020 C.2       1 <0>        -0.0644
      3 C3         -0.0944   -0.5641   -1.2071 C.2       1 <0>        -0.1691
      4 C4         -0.0621   -2.0542   -1.3833 C.3       1 <0>         0.2114
      5 N1          0.7609   -2.6332   -0.3157 N.pl3     1 <0>        -0.7356
      6 C5          0.5938   -2.1642    0.9887 C.ar      1 <0>         0.2219
      7 C6          0.1303   -0.8437    1.2014 C.ar      1 <0>        -0.0813
      8 C7         -0.2423   -0.4813    2.4961 C.ar      1 <0>        -0.0542
      9 C8          0.0939   -1.3323    3.5558 C.ar      1 <0>        -0.0816
     10 C9          0.7248   -2.5539    3.3358 C.ar      1 <0>        -0.0599
     11 C10         0.9672   -2.9710    2.0467 C.ar      1 <0>        -0.1754
     12 C11        -0.2270   -0.9440    4.9502 C.ar      1 <0>        -0.1200
     13 C12         0.0495   -1.8002    6.0097 C.ar      1 <0>        -0.0766
     14 C13        -0.2695   -1.4234    7.3004 C.ar      1 <0>        -0.1523
     15 C14        -0.8653   -0.1980    7.5375 C.ar      1 <0>        -0.0811
     16 C15        -1.1330    0.6637    6.4908 C.ar      1 <0>        -0.1495
     17 C16        -0.8106    0.3012    5.1901 C.ar      1 <0>         0.1446
     18 O1         -1.0424    1.1425    4.1703 O.3       1 <0>        -0.3075
     19 C17        -1.0015    0.7748    2.8040 C.3       1 <0>         0.1901
     20 C18        -2.4187    0.6234    2.3142 C.ar      1 <0>        -0.0932
     21 C19        -3.3652    0.0118    3.1153 C.ar      1 <0>        -0.0905
     22 C20        -4.6651   -0.1275    2.6667 C.ar      1 <0>        -0.1049
     23 C21        -5.0195    0.3442    1.4166 C.ar      1 <0>        -0.1059
     24 C22        -4.0730    0.9561    0.6147 C.ar      1 <0>        -0.0318
     25 C23        -2.7732    1.1008    1.0667 C.ar      1 <0>        -0.1088
     26 Cl1        -4.5173    1.5488   -0.9554 Cl        1 <0>        -0.0672
     27 C24        -1.4817   -2.6148   -1.3145 C.3       1 <0>        -0.1557
     28 C25         0.5581   -2.3941   -2.7399 C.3       1 <0>        -0.1533
     29 H1          1.0043    1.8776    0.0161 H         1 <0>         0.0770
     30 H2         -0.5338    1.8616   -0.8796 H         1 <0>         0.0769
     31 H3         -0.5403    1.8518    0.9003 H         1 <0>         0.0759
     32 H4         -0.1928    0.0765   -2.0700 H         1 <0>         0.1247
     33 H5          1.4086   -3.3284   -0.5165 H         1 <0>         0.4031
     34 H6          1.0209   -3.1729    4.1688 H         1 <0>         0.1317
     35 H7          1.4470   -3.9218    1.8608 H         1 <0>         0.1293
     36 H8          0.5096   -2.7602    5.8314 H         1 <0>         0.1273
     37 H9         -0.0475   -2.0860    8.1235 H         1 <0>         0.1266
     38 H10        -1.1213    0.0837    8.5488 H         1 <0>         0.1306
     39 H11        -1.5907    1.6213    6.6848 H         1 <0>         0.1326
     40 H12        -0.5461    1.6305    2.2990 H         1 <0>         0.1270
     41 H13        -3.0886   -0.3575    4.0918 H         1 <0>         0.1244
     42 H14        -5.4040   -0.6053    3.2929 H         1 <0>         0.1340
     43 H15        -6.0351    0.2346    1.0660 H         1 <0>         0.1346
     44 H16        -2.0348    1.5824    0.4429 H         1 <0>         0.1486
     45 H17        -2.0861   -2.1715   -2.1059 H         1 <0>         0.0674
     46 H18        -1.4517   -3.6968   -1.4431 H         1 <0>         0.0598
     47 H19        -1.9201   -2.3760   -0.3456 H         1 <0>         0.0572
     48 H20         1.5738   -2.0009   -2.7838 H         1 <0>         0.0636
     49 H21         0.5816   -3.4763   -2.8678 H         1 <0>         0.0640
     50 H22        -0.0391   -1.9472   -3.5347 H         1 <0>         0.0751
@<TRIPOS>BOND
     1    1    2 1
     2    1   29 1
     3    1   30 1
     4    1   31 1
     5    2    7 1
     6    2    3 2
     7    3    4 1
     8    3   32 1
     9    4    5 1
    10    4   27 1
    11    4   28 1
    12    5    6 1
    13    5   33 1
    14    6   11 ar
    15    6    7 ar
    16    7    8 ar
    17    8   19 1
    18    8    9 ar
    19    9   10 ar
    20    9   12 1
    21   10   11 ar
    22   10   34 1
    23   11   35 1
    24   12   17 ar
    25   12   13 ar
    26   13   14 ar
    27   13   36 1
    28   14   15 ar
    29   14   37 1
    30   15   16 ar
    31   15   38 1
    32   16   17 ar
    33   16   39 1
    34   17   18 1
    35   18   19 1
    36   19   20 1
    37   19   40 1
    38   20   25 ar
    39   20   21 ar
    40   21   22 ar
    41   21   41 1
    42   22   23 ar
    43   22   42 1
    44   23   24 ar
    45   23   43 1
    46   24   25 ar
    47   24   26 1
    48   25   44 1
    49   27   45 1
    50   27   46 1
    51   27   47 1
    52   28   48 1
    53   28   49 1
    54   28   50 1
@<TRIPOS>MOLECULE
CHEMBL320690__1
   50    54     0     0     0
SMALL
USER_CHARGES

@<TRIPOS>ATOM
      1 C1         -0.4189    1.9235    0.0488 C.3       1 <0>        -0.1249
      2 C2         -0.3369    0.4365   -0.1740 C.2       1 <0>        -0.0647
      3 C3         -0.5674    0.0254   -1.4242 C.2       1 <0>        -0.1727
      4 C4         -0.5038   -1.4266   -1.7987 C.3       1 <0>         0.2114
      5 N1          0.4445   -2.1099   -0.9142 N.pl3     1 <0>        -0.7345
      6 C5          0.4383   -1.8086    0.4473 C.ar      1 <0>         0.2233
      7 C6         -0.0180   -0.5397    0.8797 C.ar      1 <0>        -0.0879
      8 C7         -0.1829   -0.3370    2.2428 C.ar      1 <0>        -0.0529
      9 C8          0.2776   -1.3099    3.1441 C.ar      1 <0>        -0.0832
     10 C9          0.8877   -2.4755    2.6963 C.ar      1 <0>        -0.0543
     11 C10         0.9603   -2.7235    1.3431 C.ar      1 <0>        -0.1799
     12 C11         0.0588   -1.1007    4.5955 C.ar      1 <0>        -0.0947
     13 C12         0.7544   -1.8270    5.5527 C.ar      1 <0>        -0.0844
     14 C13         0.5178   -1.5916    6.8943 C.ar      1 <0>        -0.1399
     15 C14        -0.4038   -0.6360    7.2843 C.ar      1 <0>        -0.0913
     16 C15        -1.1002    0.0934    6.3371 C.ar      1 <0>        -0.1353
     17 C16        -0.8746   -0.1367    4.9935 C.ar      1 <0>         0.1192
     18 O1         -1.5480    0.5431    4.0310 O.3       1 <0>        -0.3036
     19 C17        -0.8157    0.8885    2.8458 C.3       1 <0>         0.1819
     20 C18         0.2571    1.8711    3.2390 C.ar      1 <0>        -0.1075
     21 C19         1.4893    1.8364    2.6127 C.ar      1 <0>        -0.0928
     22 C20         2.4738    2.7373    2.9729 C.ar      1 <0>        -0.1090
     23 C21         2.2271    3.6733    3.9598 C.ar      1 <0>        -0.1026
     24 C22         0.9945    3.7085    4.5867 C.ar      1 <0>        -0.0348
     25 C23         0.0072    2.8103    4.2214 C.ar      1 <0>        -0.0849
     26 Cl1         0.6839    4.8837    5.8261 Cl        1 <0>        -0.0663
     27 C24        -0.0349   -1.5611   -3.2495 C.3       1 <0>        -0.1530
     28 C25        -1.8893   -2.0588   -1.6542 C.3       1 <0>        -0.1583
     29 H1          0.5107    2.2757    0.4961 H         1 <0>         0.0736
     30 H2         -0.5760    2.4258   -0.9057 H         1 <0>         0.0710
     31 H3         -1.2507    2.1455    0.7174 H         1 <0>         0.0694
     32 H4         -0.8045    0.7638   -2.1761 H         1 <0>         0.1251
     33 H5          1.0693   -2.7645   -1.2708 H         1 <0>         0.4032
     34 H6          1.2997   -3.1808    3.4019 H         1 <0>         0.1304
     35 H7          1.4233   -3.6301    0.9792 H         1 <0>         0.1286
     36 H8          1.4787   -2.5702    5.2551 H         1 <0>         0.1265
     37 H9          1.0555   -2.1565    7.6417 H         1 <0>         0.1260
     38 H10        -0.5814   -0.4580    8.3342 H         1 <0>         0.1293
     39 H11        -1.8166    0.8387    6.6491 H         1 <0>         0.1316
     40 H12        -1.5222    1.3411    2.1620 H         1 <0>         0.1372
     41 H13         1.6828    1.1049    1.8422 H         1 <0>         0.1324
     42 H14         3.4361    2.7097    2.4834 H         1 <0>         0.1335
     43 H15         2.9966    4.3767    4.2416 H         1 <0>         0.1344
     44 H16        -0.9568    2.8402    4.7074 H         1 <0>         0.1380
     45 H17         0.9544   -1.1157   -3.3543 H         1 <0>         0.0634
     46 H18         0.0109   -2.6159   -3.5203 H         1 <0>         0.0639
     47 H19        -0.7361   -1.0473   -3.9071 H         1 <0>         0.0751
     48 H20        -2.5925   -1.5471   -2.3113 H         1 <0>         0.0670
     49 H21        -1.8381   -3.1128   -1.9271 H         1 <0>         0.0604
     50 H22        -2.2247   -1.9669   -0.6211 H         1 <0>         0.0577
@<TRIPOS>BOND
     1    1    2 1
     2    1   29 1
     3    1   30 1
     4    1   31 1
     5    2    7 1
     6    2    3 2
     7    3    4 1
     8    3   32 1
     9    4    5 1
    10    4   27 1
    11    4   28 1
    12    5    6 1
    13    5   33 1
    14    6   11 ar
    15    6    7 ar
    16    7    8 ar
    17    8   19 1
    18    8    9 ar
    19    9   10 ar
    20    9   12 1
    21   10   11 ar
    22   10   34 1
    23   11   35 1
    24   12   17 ar
    25   12   13 ar
    26   13   14 ar
    27   13   36 1
    28   14   15 ar
    29   14   37 1
    30   15   16 ar
    31   15   38 1
    32   16   17 ar
    33   16   39 1
    34   17   18 1
    35   18   19 1
    36   19   20 1
    37   19   40 1
    38   20   25 ar
    39   20   21 ar
    40   21   22 ar
    41   21   41 1
    42   22   23 ar
    43   22   42 1
    44   23   24 ar
    45   23   43 1
    46   24   25 ar
    47   24   26 1
    48   25   44 1
    49   27   45 1
    50   27   46 1
    51   27   47 1
    52   28   48 1
    53   28   49 1
    54   28   50 1
@<TRIPOS>MOLECULE
CHEMBL249071
   32    32     0     0     0
SMALL
USER_CHARGES

@<TRIPOS>ATOM
      1 C1         -0.0187    1.5258    0.0104 C.3       1 <0>        -0.1540
      2 C2          0.0021   -0.0041    0.0020 C.3       1 <0>        -0.1232
      3 C3          0.7182   -0.4975   -1.2568 C.3       1 <0>        -0.1429
      4 C4          0.7390   -2.0273   -1.2652 C.3       1 <0>         0.1134
      5 N1          1.4247   -2.4998   -2.4705 N.pl3     1 <0>        -0.5920
      6 C5          2.8722   -2.7245   -2.4493 C.3       1 <0>         0.0914
      7 C6          0.7040   -2.7342   -3.6309 C.ar      1 <0>         0.4339
      8 C7         -0.6514   -2.4132   -3.6743 C.ar      1 <0>        -0.1911
      9 C8         -1.3603   -2.6460   -4.8220 C.ar      1 <0>        -0.0482
     10 C9         -0.6898   -3.2040   -5.9215 C.ar      1 <0>        -0.1089
     11 C10         0.6693   -3.5006   -5.8070 C.ar      1 <0>         0.2206
     12 N2          1.3150   -3.2555   -4.6855 N.ar      1 <0>        -0.5209
     13 C11        -1.3901   -3.4658   -7.1429 C.1       1 <0>         0.2438
     14 N3         -1.9455   -3.6734   -8.1118 N.1       1 <0>        -0.3878
     15 C12        -2.8274   -2.3112   -4.9028 C.3       1 <0>         0.5053
     16 F1         -3.2507   -1.7722   -3.6832 F         1 <0>        -0.1682
     17 F2         -3.0371   -1.3773   -5.9232 F         1 <0>        -0.1663
     18 F3         -3.5565   -3.4732   -5.1772 F         1 <0>        -0.1662
     19 H1          1.0039    1.9031    0.0027 H         1 <0>         0.0544
     20 H2         -0.5459    1.8868   -0.8726 H         1 <0>         0.0550
     21 H3         -0.5289    1.8773    0.9072 H         1 <0>         0.0569
     22 H4          0.5293   -0.3651    0.8851 H         1 <0>         0.0652
     23 H5         -1.0205   -0.3814    0.0098 H         1 <0>         0.0654
     24 H6          0.1910   -0.1364   -2.1398 H         1 <0>         0.0681
     25 H7          1.7408   -0.1202   -1.2645 H         1 <0>         0.0700
     26 H8          1.2661   -2.3884   -0.3821 H         1 <0>         0.0906
     27 H9         -0.2836   -2.4046   -1.2575 H         1 <0>         0.0832
     28 H10         3.0759   -3.7529   -2.1511 H         1 <0>         0.0586
     29 H11         3.2821   -2.5464   -3.4434 H         1 <0>         0.0829
     30 H12         3.3355   -2.0412   -1.7375 H         1 <0>         0.0715
     31 H13        -1.1381   -1.9851   -2.8104 H         1 <0>         0.1587
     32 H14         1.1964   -3.9306   -6.6458 H         1 <0>         0.1808
@<TRIPOS>BOND
     1    1    2 1
     2    1   19 1
     3    1   20 1
     4    1   21 1
     5    2    3 1
     6    2   22 1
     7    2   23 1
     8    3    4 1
     9    3   24 1
    10    3   25 1
    11    4    5 1
    12    4   26 1
    13    4   27 1
    14    5    6 1
    15    5    7 1
    16    6   28 1
    17    6   29 1
    18    6   30 1
    19    7   12 ar
    20    7    8 ar
    21    8    9 ar
    22    8   31 1
    23    9   10 ar
    24    9   15 1
    25   10   11 ar
    26   10   13 1
    27   11   12 ar
    28   11   32 1
    29   13   14 3
    30   15   16 1
    31   15   17 1
    32   15   18 1
@<TRIPOS>MOLECULE
CHEMBL398431
   36    37     0     0     0
SMALL
USER_CHARGES

@<TRIPOS>ATOM
      1 C1         -0.0187    1.5258    0.0104 C.3       1 <0>        -0.1526
      2 C2          0.0021   -0.0041    0.0020 C.3       1 <0>        -0.1460
      3 C3          0.7182   -0.4975   -1.2568 C.3       1 <0>         0.1139
      4 N1          0.7381   -1.9623   -1.2648 N.pl3     1 <0>        -0.5847
      5 C4         -0.3566   -2.7063   -1.8928 C.3       1 <0>         0.1543
      6 C5         -0.0285   -2.9488   -3.3674 C.3       1 <0>        -0.1666
      7 C6         -0.9442   -2.3044   -4.4101 C.3       1 <0>        -0.1829
      8 C7         -0.9982   -3.8151   -4.1737 C.3       1 <0>        -0.1702
      9 C8          1.7925   -2.6443   -0.6784 C.ar      1 <0>         0.4350
     10 C9          2.7718   -1.9325    0.0118 C.ar      1 <0>        -0.1911
     11 C10         3.8119   -2.6091    0.5899 C.ar      1 <0>        -0.0485
     12 C11         3.8536   -4.0065    0.4647 C.ar      1 <0>        -0.1086
     13 C12         2.8383   -4.6540   -0.2411 C.ar      1 <0>         0.2197
     14 N2          1.8523   -3.9649   -0.7775 N.ar      1 <0>        -0.5169
     15 C13         4.9224   -4.7568    1.0522 C.1       1 <0>         0.2437
     16 N3          5.7703   -5.3521    1.5183 N.1       1 <0>        -0.3882
     17 C14         4.8880   -1.8704    1.3431 C.3       1 <0>         0.5052
     18 F1          4.6153   -0.4985    1.3204 F         1 <0>        -0.1683
     19 F2          4.9204   -2.3175    2.6684 F         1 <0>        -0.1664
     20 F3          6.1275   -2.1096    0.7399 F         1 <0>        -0.1664
     21 H1          1.0039    1.9031    0.0027 H         1 <0>         0.0582
     22 H2         -0.5459    1.8868   -0.8726 H         1 <0>         0.0580
     23 H3         -0.5289    1.8773    0.9072 H         1 <0>         0.0610
     24 H4          0.5293   -0.3651    0.8851 H         1 <0>         0.0675
     25 H5         -1.0205   -0.3814    0.0098 H         1 <0>         0.0688
     26 H6          0.1910   -0.1364   -2.1398 H         1 <0>         0.0908
     27 H7          1.7408   -0.1202   -1.2645 H         1 <0>         0.0826
     28 H8         -0.4829   -3.6633   -1.3865 H         1 <0>         0.0948
     29 H9         -1.2787   -2.1301   -1.8157 H         1 <0>         0.0804
     30 H10         1.0322   -3.0244   -3.6067 H         1 <0>         0.1054
     31 H11        -1.7804   -1.7078   -4.0455 H         1 <0>         0.0943
     32 H12        -0.4860   -1.9559   -5.3356 H         1 <0>         0.0931
     33 H13        -0.5755   -4.4604   -4.9437 H         1 <0>         0.0957
     34 H14        -1.8699   -4.2123   -3.6536 H         1 <0>         0.0962
     35 H15         2.7108   -0.8571    0.0897 H         1 <0>         0.1585
     36 H16         2.8593   -5.7288   -0.3448 H         1 <0>         0.1802
@<TRIPOS>BOND
     1    1    2 1
     2    1   21 1
     3    1   22 1
     4    1   23 1
     5    2    3 1
     6    2   24 1
     7    2   25 1
     8    3    4 1
     9    3   26 1
    10    3   27 1
    11    4    5 1
    12    4    9 1
    13    5    6 1
    14    5   28 1
    15    5   29 1
    16    6    8 1
    17    6    7 1
    18    6   30 1
    19    7    8 1
    20    7   31 1
    21    7   32 1
    22    8   33 1
    23    8   34 1
    24    9   14 ar
    25    9   10 ar
    26   10   11 ar
    27   10   35 1
    28   11   12 ar
    29   11   17 1
    30   12   13 ar
    31   12   15 1
    32   13   14 ar
    33   13   36 1
    34   15   16 3
    35   17   18 1
    36   17   19 1
    37   17   20 1
@<TRIPOS>MOLECULE
CHEMBL25802
   40    43     0     0     0
SMALL
USER_CHARGES

@<TRIPOS>ATOM
      1 C1         -0.0165    1.3619    0.0095 C.ar      1 <0>        -0.0151
      2 C2          1.1834    2.0837    0.0019 C.ar      1 <0>        -0.1699
      3 C3          1.1805    3.5022    0.0174 C.2       1 <0>        -0.0577
      4 C4          2.3628    4.1664    0.0083 C.2       1 <0>        -0.1720
      5 C5          3.5793    3.4542   -0.0171 C.2       1 <0>         0.5411
      6 N1          3.5950    2.1082   -0.0312 N.am      1 <0>        -0.6241
      7 C6          2.4130    1.3962   -0.0203 C.ar      1 <0>         0.2446
      8 C7          2.4183    0.0093   -0.0321 C.ar      1 <0>        -0.2511
      9 C8          1.2189   -0.6899   -0.0212 C.ar      1 <0>         0.2873
     10 C9          0.0021   -0.0041    0.0020 C.ar      1 <0>        -0.1554
     11 C10        -1.3006   -0.7527    0.0282 C.3       1 <0>        -0.0358
     12 H1         -1.6443   -0.8277    1.0599 H         1 <0>         0.0824
     13 C11        -2.3675   -0.0375   -0.7980 C.3       1 <0>        -0.1134
     14 C12        -3.6868   -0.8069   -0.6756 C.3       1 <0>        -0.1207
     15 C13        -3.5053   -2.2395   -1.1775 C.3       1 <0>        -0.1208
     16 C14        -2.4135   -2.9450   -0.3668 C.3       1 <0>        -0.1112
     17 C15        -1.1114   -2.1615   -0.5342 C.3       1 <0>        -0.1015
     18 H2         -0.8484   -2.0973   -1.5900 H         1 <0>         0.0811
     19 C16         0.0263   -2.8461    0.2257 C.3       1 <0>         0.1206
     20 N2          1.2561   -2.0847   -0.0393 N.pl3     1 <0>        -0.7349
     21 O1          4.6332    4.0668   -0.0269 O.2       1 <0>        -0.5242
     22 C17        -0.1207    4.2619    0.0431 C.3       1 <0>         0.5052
     23 F1          0.1416    5.6360    0.0545 F         1 <0>        -0.1683
     24 F2         -0.8712    3.9398   -1.0928 F         1 <0>        -0.1676
     25 F3         -0.8406    3.9150    1.1914 F         1 <0>        -0.1677
     26 H3         -0.9601    1.8870    0.0259 H         1 <0>         0.1368
     27 H4          2.3725    5.2463    0.0202 H         1 <0>         0.1679
     28 H5          3.3556   -0.5269   -0.0502 H         1 <0>         0.1369
     29 H6         -2.5005    0.9773   -0.4230 H         1 <0>         0.0673
     30 H7         -2.0593   -0.0051   -1.8431 H         1 <0>         0.0676
     31 H8         -3.9986   -0.8263    0.3687 H         1 <0>         0.0636
     32 H9         -4.4523   -0.3093   -1.2709 H         1 <0>         0.0655
     33 H10        -4.4443   -2.7824   -1.0690 H         1 <0>         0.0644
     34 H11        -3.2198   -2.2208   -2.2293 H         1 <0>         0.0624
     35 H12        -2.7009   -2.9753    0.6842 H         1 <0>         0.0683
     36 H13        -2.2795   -3.9602   -0.7404 H         1 <0>         0.0675
     37 H14        -0.1879   -2.8430    1.2944 H         1 <0>         0.0671
     38 H15         0.1425   -3.8711   -0.1265 H         1 <0>         0.0866
     39 H16         2.0872   -2.5488   -0.2257 H         1 <0>         0.4070
     40 H17         4.4422    1.6361   -0.0494 H         1 <0>         0.4202
@<TRIPOS>BOND
     1    1   10 ar
     2    1    2 ar
     3    1   26 1
     4    2    7 ar
     5    2    3 1
     6    3    4 2
     7    3   22 1
     8    4    5 1
     9    4   27 1
    10    5    6 am
    11    5   21 2
    12    6    7 1
    13    6   40 1
    14    7    8 ar
    15    8    9 ar
    16    8   28 1
    17    9   20 1
    18    9   10 ar
    19   10   11 1
    20   11   12 1
    21   11   17 1
    22   11   13 1
    23   13   14 1
    24   13   29 1
    25   13   30 1
    26   14   15 1
    27   14   31 1
    28   14   32 1
    29   15   16 1
    30   15   33 1
    31   15   34 1
    32   16   17 1
    33   16   35 1
    34   16   36 1
    35   17   18 1
    36   17   19 1
    37   19   20 1
    38   19   37 1
    39   19   38 1
    40   20   39 1
    41   22   23 1
    42   22   24 1
    43   22   25 1
@<TRIPOS>MOLECULE
CHEMBL422162
   50    51     0     0     0
SMALL
USER_CHARGES

@<TRIPOS>ATOM
      1 C1         -0.6608    2.1604   -0.0843 C.3       1 <0>        -0.1778
      2 C2         -0.5196    0.6779   -0.4352 C.3       1 <0>         0.1412
      3 C3          0.6201    0.0665    0.3823 C.3       1 <0>        -0.6427
      4 S1          0.3273    0.3674    2.1470 S.o2      1 <0>         2.5134
      5 O1          0.4454    1.7542    2.4333 O.2       1 <0>        -0.9273
      6 O2         -0.8048   -0.3695    2.5880 O.2       1 <0>        -0.9166
      7 C4          1.6968   -0.3791    2.9669 C.ar      1 <0>        -0.6815
      8 C5          1.6284   -1.7037    3.3578 C.ar      1 <0>        -0.0007
      9 C6          2.7001   -2.2917    4.0007 C.ar      1 <0>        -0.1429
     10 C7          3.8474   -1.5513    4.2539 C.ar      1 <0>         0.2055
     11 C8          3.9130   -0.2214    3.8595 C.ar      1 <0>        -0.1644
     12 C9          2.8397    0.3594    3.2128 C.ar      1 <0>         0.0000
     13 N1          4.9347   -2.1440    4.9053 N.am      1 <0>        -0.6743
     14 C10         5.2028   -3.4512    4.7161 C.2       1 <0>         0.5045
     15 O3          4.5602   -4.0917    3.9112 O.2       1 <0>        -0.4857
     16 C11         6.3009   -4.1170    5.5047 C.3       1 <0>        -0.0683
     17 Cl1         6.4141   -5.8527    5.0301 Cl        1 <0>        -0.1179
     18 C12        -0.2161    0.5362   -1.9045 C.2       1 <0>         0.5026
     19 O4          0.9330    0.4367   -2.2795 O.2       1 <0>        -0.4960
     20 N2         -1.2216    0.5201   -2.8018 N.am      1 <0>        -0.6623
     21 C13        -0.9500    0.2819   -4.1497 C.ar      1 <0>         0.1756
     22 C14         0.0849   -0.5760   -4.5081 C.ar      1 <0>        -0.0941
     23 C15         0.3557   -0.8133   -5.8369 C.ar      1 <0>        -0.0454
     24 C16        -0.4108   -0.1911   -6.8266 C.ar      1 <0>         0.0111
     25 C17        -1.4497    0.6700   -6.4629 C.ar      1 <0>        -0.1177
     26 C18        -1.7184    0.8983   -5.1316 C.ar      1 <0>        -0.0966
     27 C19        -2.2789    1.3432   -7.5261 C.3       1 <0>         0.5059
     28 F1         -3.2484    2.1496   -6.9204 F         1 <0>        -0.1694
     29 F2         -1.4520    2.1334   -8.3317 F         1 <0>        -0.1689
     30 F3         -2.9060    0.3714   -8.3132 F         1 <0>        -0.1689
     31 C20        -0.1319   -0.4351   -8.2098 C.1       1 <0>         0.2304
     32 N3          0.0894   -0.6287   -9.3071 N.1       1 <0>        -0.3742
     33 O5         -1.7400   -0.0014   -0.1333 O.3       1 <0>        -0.5349
     34 H1          0.2702    2.6785   -0.3146 H         1 <0>         0.0975
     35 H2         -1.4727    2.5959   -0.6666 H         1 <0>         0.0893
     36 H3         -0.8803    2.2629    0.9785 H         1 <0>         0.0987
     37 H4          0.6634   -1.0071    0.1990 H         1 <0>         0.1456
     38 H5          1.5646    0.5238    0.0875 H         1 <0>         0.1607
     39 H6          0.7359   -2.2789    3.1606 H         1 <0>         0.1476
     40 H7          2.6458   -3.3261    4.3064 H         1 <0>         0.1471
     41 H8          4.8037    0.3572    4.0554 H         1 <0>         0.1401
     42 H9          2.8917    1.3925    2.9023 H         1 <0>         0.1495
     43 H10         5.4955   -1.6140    5.4931 H         1 <0>         0.4185
     44 H11         7.2491   -3.6211    5.2974 H         1 <0>         0.1289
     45 H12         6.0785   -4.0452    6.5694 H         1 <0>         0.1303
     46 H13        -2.1339    0.6740   -2.5107 H         1 <0>         0.4260
     47 H14         0.6769   -1.0560   -3.7429 H         1 <0>         0.1554
     48 H15         1.1595   -1.4791   -6.1144 H         1 <0>         0.1530
     49 H16        -2.5239    1.5602   -4.8497 H         1 <0>         0.1565
     50 H17        -1.7228   -0.9478   -0.3311 H         1 <0>         0.3934
@<TRIPOS>BOND
     1    1    2 1
     2    1   34 1
     3    1   35 1
     4    1   36 1
     5    2    3 1
     6    2   18 1
     7    2   33 1
     8    3    4 1
     9    3   37 1
    10    3   38 1
    11    4    5 2
    12    4    6 2
    13    4    7 1
    14    7   12 ar
    15    7    8 ar
    16    8    9 ar
    17    8   39 1
    18    9   10 ar
    19    9   40 1
    20   10   11 ar
    21   10   13 1
    22   11   12 ar
    23   11   41 1
    24   12   42 1
    25   13   14 am
    26   13   43 1
    27   14   15 2
    28   14   16 1
    29   16   17 1
    30   16   44 1
    31   16   45 1
    32   18   19 2
    33   18   20 am
    34   20   21 1
    35   20   46 1
    36   21   26 ar
    37   21   22 ar
    38   22   23 ar
    39   22   47 1
    40   23   24 ar
    41   23   48 1
    42   24   25 ar
    43   24   31 1
    44   25   26 ar
    45   25   27 1
    46   26   49 1
    47   27   28 1
    48   27   29 1
    49   27   30 1
    50   31   32 3
    51   33   50 1
@<TRIPOS>MOLECULE
CHEMBL422162__1
   50    51     0     0     0
SMALL
USER_CHARGES

@<TRIPOS>ATOM
      1 C1          0.8233    1.6637   -0.5980 C.3       1 <0>        -0.1776
      2 C2          0.6254    0.2133   -1.0429 C.3       1 <0>         0.1421
      3 C3          0.8703   -0.7219    0.1430 C.3       1 <0>        -0.6429
      4 S1          2.5131   -0.3969    0.8402 S.o2      1 <0>         2.5134
      5 O1          3.5219   -0.7882   -0.0810 O.2       1 <0>        -0.9177
      6 O2          2.5429    0.8891    1.4439 O.2       1 <0>        -0.9266
      7 C4          2.6671   -1.5275    2.1828 C.ar      1 <0>        -0.6817
      8 C5          2.2470   -1.1582    3.4474 C.ar      1 <0>         0.0006
      9 C6          2.3663   -2.0422    4.5019 C.ar      1 <0>        -0.1427
     10 C7          2.9084   -3.3032    4.2909 C.ar      1 <0>         0.2057
     11 C8          3.3289   -3.6712    3.0196 C.ar      1 <0>        -0.1648
     12 C9          3.2025   -2.7844    1.9684 C.ar      1 <0>        -0.0011
     13 N1          3.0310   -4.2009    5.3572 N.am      1 <0>        -0.6744
     14 C10         2.1189   -4.1974    6.3494 C.2       1 <0>         0.5041
     15 O3          1.1424   -3.4821    6.2729 O.2       1 <0>        -0.4850
     16 C11         2.3123   -5.0823    7.5539 C.3       1 <0>        -0.0682
     17 Cl1         0.9351   -4.8538    8.6948 Cl        1 <0>        -0.1177
     18 C12        -0.7836    0.0296   -1.5449 C.2       1 <0>         0.5018
     19 O4         -1.6440   -0.3864   -0.7981 O.2       1 <0>        -0.4954
     20 N2         -1.0876    0.3275   -2.8237 N.am      1 <0>        -0.6623
     21 C13        -2.4113    0.2599   -3.2601 C.ar      1 <0>         0.1750
     22 C14        -3.4468    0.5801   -2.3878 C.ar      1 <0>        -0.0933
     23 C15        -4.7540    0.5145   -2.8149 C.ar      1 <0>        -0.0454
     24 C16        -5.0402    0.1257   -4.1268 C.ar      1 <0>         0.0111
     25 C17        -3.9975   -0.1951   -5.0002 C.ar      1 <0>        -0.1183
     26 C18        -2.6921   -0.1218   -4.5677 C.ar      1 <0>        -0.0971
     27 C19        -4.3009   -0.6148   -6.4154 C.3       1 <0>         0.5060
     28 F1         -3.1044   -0.8820   -7.0893 F         1 <0>        -0.1696
     29 F2         -5.0949   -1.7666   -6.4002 F         1 <0>        -0.1691
     30 F3         -4.9852    0.4147   -7.0705 F         1 <0>        -0.1688
     31 C20        -6.3987    0.0559   -4.5745 C.1       1 <0>         0.2304
     32 N3         -7.4763    0.0005   -4.9296 N.1       1 <0>        -0.3743
     33 O5          1.5480   -0.0938   -2.0901 O.3       1 <0>        -0.5361
     34 H1          1.8424    1.7966   -0.2349 H         1 <0>         0.0991
     35 H2          0.6488    2.3299   -1.4428 H         1 <0>         0.0899
     36 H3          0.1195    1.8979    0.2008 H         1 <0>         0.0977
     37 H4          0.1111   -0.5481    0.9056 H         1 <0>         0.1610
     38 H5          0.8168   -1.7572   -0.1936 H         1 <0>         0.1451
     39 H6          1.8254   -0.1774    3.6108 H         1 <0>         0.1486
     40 H7          2.0386   -1.7529    5.4895 H         1 <0>         0.1473
     41 H8          3.7513   -4.6510    2.8524 H         1 <0>         0.1399
     42 H9          3.5256   -3.0714    0.9786 H         1 <0>         0.1486
     43 H10         3.7726   -4.8258    5.3823 H         1 <0>         0.4184
     44 H11         2.3522   -6.1243    7.2365 H         1 <0>         0.1288
     45 H12         3.2449   -4.8184    8.0526 H         1 <0>         0.1303
     46 H13        -0.3863    0.5890   -3.4406 H         1 <0>         0.4259
     47 H14        -3.2249    0.8800   -1.3743 H         1 <0>         0.1566
     48 H15        -5.5573    0.7628   -2.1371 H         1 <0>         0.1534
     49 H16        -1.8855   -0.3654   -5.2434 H         1 <0>         0.1563
     50 H17         1.4791   -0.9995   -2.4219 H         1 <0>         0.3931
@<TRIPOS>BOND
     1    1    2 1
     2    1   34 1
     3    1   35 1
     4    1   36 1
     5    2    3 1
     6    2   18 1
     7    2   33 1
     8    3    4 1
     9    3   37 1
    10    3   38 1
    11    4    5 2
    12    4    6 2
    13    4    7 1
    14    7   12 ar
    15    7    8 ar
    16    8    9 ar
    17    8   39 1
    18    9   10 ar
    19    9   40 1
    20   10   11 ar
    21   10   13 1
    22   11   12 ar
    23   11   41 1
    24   12   42 1
    25   13   14 am
    26   13   43 1
    27   14   15 2
    28   14   16 1
    29   16   17 1
    30   16   44 1
    31   16   45 1
    32   18   19 2
    33   18   20 am
    34   20   21 1
    35   20   46 1
    36   21   26 ar
    37   21   22 ar
    38   22   23 ar
    39   22   47 1
    40   23   24 ar
    41   23   48 1
    42   24   25 ar
    43   24   31 1
    44   25   26 ar
    45   25   27 1
    46   26   49 1
    47   27   28 1
    48   27   29 1
    49   27   30 1
    50   31   32 3
    51   33   50 1
@<TRIPOS>MOLECULE
CHEMBL296037
   60    64     0     0     0
SMALL
USER_CHARGES

@<TRIPOS>ATOM
      1 C1         -0.1222    1.4783   -0.0247 C.3       1 <0>        -0.1425
      2 C2         -0.0830   -0.0440   -0.0385 C.3       1 <0>        -0.0578
      3 C3         -1.5142   -0.5986   -0.0234 C.3       1 <0>        -0.1157
      4 C4         -2.2698   -0.0044    1.1664 C.3       1 <0>        -0.1347
      5 C5         -1.4307   -0.0507    2.4088 C.2       1 <0>         0.5177
      6 O1         -1.9792    0.1065    3.4781 O.2       1 <0>        -0.5541
      7 N1         -0.1084   -0.2613    2.4058 N.am      1 <0>        -0.6004
      8 C6          0.6341   -0.5961    1.2055 C.3       1 <0>         0.1556
      9 C7          2.0973   -0.1962    1.2523 C.3       1 <0>        -0.1254
     10 C8          2.8335   -0.6567   -0.0234 C.3       1 <0>        -0.1057
     11 C9          2.1143   -0.0419   -1.2125 C.3       1 <0>        -0.0749
     12 C10         0.6766   -0.5777   -1.2414 C.3       1 <0>        -0.0713
     13 C11         0.0630   -0.3304   -2.6045 C.3       1 <0>        -0.1037
     14 C12         0.7220   -1.2715   -3.6312 C.3       1 <0>        -0.1036
     15 C13         2.1965   -1.4249   -3.3366 C.3       1 <0>        -0.0423
     16 C14         2.7419   -0.2073   -2.5592 C.3       1 <0>        -0.0704
     17 C15         4.2574   -0.4622   -2.5942 C.3       1 <0>        -0.1159
     18 C16         4.4829   -0.9432   -4.0576 C.3       1 <0>        -0.1387
     19 C17         3.1090   -1.4212   -4.5658 C.3       1 <0>         0.1143
     20 C18         3.2244   -2.8170   -5.1990 C.3       1 <0>        -0.1415
     21 C19         3.6966   -2.4397   -6.6340 C.3       1 <0>        -0.1600
     22 C20         2.9598   -1.1040   -6.8761 C.3       1 <0>         0.0489
     23 O2          2.6192   -0.5598   -5.5921 O.3       1 <0>        -0.3630
     24 C21         2.4468   -2.7293   -2.5763 C.3       1 <0>        -0.1471
     25 C22         0.5954   -0.1506    3.6852 C.3       1 <0>         0.0687
     26 H1          0.8958    1.8678   -0.0099 H         1 <0>         0.0626
     27 H2         -0.6354    1.8366   -0.9171 H         1 <0>         0.0627
     28 H3         -0.6549    1.8200    0.8627 H         1 <0>         0.0541
     29 H4         -2.0182   -0.3214   -0.9498 H         1 <0>         0.0817
     30 H5         -1.4803   -1.6847    0.0644 H         1 <0>         0.0706
     31 H6         -2.5658    1.0197    0.9563 H         1 <0>         0.1028
     32 H7         -3.1773   -0.5947    1.3359 H         1 <0>         0.0978
     33 H8          0.6062   -1.6957    1.1164 H         1 <0>         0.0583
     34 H9          2.1984    0.8820    1.3530 H         1 <0>         0.0708
     35 H10         2.5892   -0.6790    2.1033 H         1 <0>         0.0687
     36 H11         3.8627   -0.3035    0.0094 H         1 <0>         0.0722
     37 H12         2.8104   -1.7407   -0.0774 H         1 <0>         0.0685
     38 H13         2.0876    1.0429   -1.0294 H         1 <0>         0.0685
     39 H14         0.7173   -1.6730   -1.0931 H         1 <0>         0.0710
     40 H15        -1.0116   -0.5223   -2.5749 H         1 <0>         0.0649
     41 H16         0.2279    0.7074   -2.9072 H         1 <0>         0.0631
     42 H17         0.2368   -2.2505   -3.5855 H         1 <0>         0.0582
     43 H18         0.5858   -0.8626   -4.6360 H         1 <0>         0.0754
     44 H19         2.5396    0.7038   -3.1515 H         1 <0>         0.0749
     45 H20         4.8027    0.4670   -2.4157 H         1 <0>         0.0632
     46 H21         4.5579   -1.2212   -1.8805 H         1 <0>         0.0717
     47 H22         4.8388   -0.1144   -4.6689 H         1 <0>         0.0719
     48 H23         5.1988   -1.7627   -4.0760 H         1 <0>         0.0687
     49 H24         3.9760   -3.4287   -4.7001 H         1 <0>         0.0831
     50 H25         2.2608   -3.3256   -5.2370 H         1 <0>         0.0789
     51 H26         4.7766   -2.2994   -6.6590 H         1 <0>         0.0750
     52 H27         3.3843   -3.1948   -7.3544 H         1 <0>         0.0801
     53 H28         3.6127   -0.4138   -7.4095 H         1 <0>         0.0663
     54 H29         2.0539   -1.2817   -7.4553 H         1 <0>         0.0684
     55 H30         2.0115   -3.5615   -3.1294 H         1 <0>         0.0561
     56 H31         3.5199   -2.8866   -2.4682 H         1 <0>         0.0577
     57 H32         1.9873   -2.6688   -1.5898 H         1 <0>         0.0660
     58 H33        -0.1170    0.0993    4.4714 H         1 <0>         0.0915
     59 H34         1.0759   -1.1007    3.9189 H         1 <0>         0.0584
     60 H35         1.3512    0.6319    3.6176 H         1 <0>         0.0596
@<TRIPOS>BOND
     1    1    2 1
     2    1   26 1
     3    1   27 1
     4    1   28 1
     5    2    8 1
     6    2   12 1
     7    2    3 1
     8    3    4 1
     9    3   29 1
    10    3   30 1
    11    4    5 1
    12    4   31 1
    13    4   32 1
    14    5    6 2
    15    5    7 am
    16    7    8 1
    17    7   25 1
    18    8    9 1
    19    8   33 1
    20    9   10 1
    21    9   34 1
    22    9   35 1
    23   10   11 1
    24   10   36 1
    25   10   37 1
    26   11   16 1
    27   11   12 1
    28   11   38 1
    29   12   13 1
    30   12   39 1
    31   13   14 1
    32   13   40 1
    33   13   41 1
    34   14   15 1
    35   14   42 1
    36   14   43 1
    37   15   19 1
    38   15   16 1
    39   15   24 1
    40   16   17 1
    41   16   44 1
    42   17   18 1
    43   17   45 1
    44   17   46 1
    45   18   19 1
    46   18   47 1
    47   18   48 1
    48   19   23 1
    49   19   20 1
    50   20   21 1
    51   20   49 1
    52   20   50 1
    53   21   22 1
    54   21   51 1
    55   21   52 1
    56   22   23 1
    57   22   53 1
    58   22   54 1
    59   24   55 1
    60   24   56 1
    61   24   57 1
    62   25   58 1
    63   25   59 1
    64   25   60 1
@<TRIPOS>MOLECULE
CHEMBL50023
   41    42     0     0     0
SMALL
USER_CHARGES

@<TRIPOS>ATOM
      1 C1         -0.0184    1.5028    0.0103 C.3       1 <0>        -0.1250
      2 C2          0.0021   -0.0041    0.0020 C.2       1 <0>        -0.1037
      3 C3          0.0049   -0.6255   -1.1642 C.2       1 <0>        -0.1362
      4 C4          0.0153   -2.0995   -1.2289 C.2       1 <0>        -0.0838
      5 C5         -0.2044   -2.7391   -2.3726 C.2       1 <0>        -0.1780
      6 C6          0.2847   -2.8582    0.0545 C.3       1 <0>        -0.0360
      7 C7         -0.4980   -2.1541    1.1723 C.3       1 <0>        -0.0543
      8 C8          0.0243   -0.7235    1.3176 C.3       1 <0>        -0.0788
      9 C9         -1.9859   -2.1271    0.8165 C.3       1 <0>        -0.1419
     10 C10        -0.2984   -2.9067    2.4893 C.3       1 <0>        -0.1474
     11 C11         1.7814   -2.8320    0.3707 C.3       1 <0>        -0.0845
     12 C12         2.5335   -3.5845   -0.6966 C.ar      1 <0>        -0.0231
     13 C13         2.7580   -4.9414   -0.5578 C.ar      1 <0>        -0.1183
     14 C14         3.4478   -5.6316   -1.5368 C.ar      1 <0>        -0.0527
     15 C15         3.9129   -4.9650   -2.6549 C.ar      1 <0>        -0.0548
     16 C16         3.6877   -3.6083   -2.7943 C.ar      1 <0>        -0.0519
     17 C17         2.9941   -2.9189   -1.8173 C.ar      1 <0>        -0.1064
     18 N1          4.6525   -5.7039   -3.7028 N.pl3     1 <0>         0.0335
     19 O1          4.8498   -6.8905   -3.5808 O.2       1 <0>        -0.1602
     20 O2          5.0592   -5.1209   -4.6807 O.3       1 <0>        -0.1597
     21 H1          1.0042    1.8801    0.0026 H         1 <0>         0.0688
     22 H2         -0.5455    1.8639   -0.8728 H         1 <0>         0.0643
     23 H3         -0.5286    1.8543    0.9071 H         1 <0>         0.0644
     24 H4         -0.0007   -0.0495   -2.0777 H         1 <0>         0.1143
     25 H5         -0.3949   -2.1794   -3.2764 H         1 <0>         0.1009
     26 H6         -0.1925   -3.8187   -2.3985 H         1 <0>         0.0971
     27 H7         -0.0565   -3.8886   -0.0450 H         1 <0>         0.0819
     28 H8          1.0472   -0.7495    1.6932 H         1 <0>         0.0785
     29 H9         -0.6028   -0.1864    2.0291 H         1 <0>         0.0747
     30 H10        -2.3514   -3.1480    0.7054 H         1 <0>         0.0544
     31 H11        -2.5403   -1.6271    1.6107 H         1 <0>         0.0559
     32 H12        -2.1258   -1.5871   -0.1199 H         1 <0>         0.0618
     33 H13         0.7617   -2.9211    2.7425 H         1 <0>         0.0589
     34 H14        -0.8545   -2.4059    3.2819 H         1 <0>         0.0595
     35 H15        -0.6602   -3.9293    2.3819 H         1 <0>         0.0588
     36 H16         2.1285   -1.7992    0.4001 H         1 <0>         0.0864
     37 H17         1.9567   -3.3019    1.3384 H         1 <0>         0.0884
     38 H18         2.3946   -5.4622    0.3158 H         1 <0>         0.1456
     39 H19         3.6238   -6.6916   -1.4279 H         1 <0>         0.1525
     40 H20         4.0514   -3.0874   -3.6677 H         1 <0>         0.1518
     41 H21         2.8149   -1.8596   -1.9279 H         1 <0>         0.1443
@<TRIPOS>BOND
     1    1    2 1
     2    1   21 1
     3    1   22 1
     4    1   23 1
     5    2    8 1
     6    2    3 2
     7    3    4 1
     8    3   24 1
     9    4    5 2
    10    4    6 1
    11    5   25 1
    12    5   26 1
    13    6    7 1
    14    6   11 1
    15    6   27 1
    16    7    8 1
    17    7    9 1
    18    7   10 1
    19    8   28 1
    20    8   29 1
    21    9   30 1
    22    9   31 1
    23    9   32 1
    24   10   33 1
    25   10   34 1
    26   10   35 1
    27   11   12 1
    28   11   36 1
    29   11   37 1
    30   12   17 ar
    31   12   13 ar
    32   13   14 ar
    33   13   38 1
    34   14   15 ar
    35   14   39 1
    36   15   16 ar
    37   15   18 1
    38   16   17 ar
    39   16   40 1
    40   17   41 1
    41   18   19 2
    42   18   20 1
@<TRIPOS>MOLECULE
CHEMBL50023__1
   41    42     0     0     0
SMALL
USER_CHARGES

@<TRIPOS>ATOM
      1 C1         -0.0184    1.5028    0.0103 C.3       1 <0>        -0.1249
      2 C2          0.0021   -0.0041    0.0020 C.2       1 <0>        -0.1032
      3 C3          0.0049   -0.6255   -1.1642 C.2       1 <0>        -0.1369
      4 C4          0.0350   -2.0992   -1.2290 C.2       1 <0>        -0.0837
      5 C5          0.2610   -2.7326   -2.3750 C.2       1 <0>        -0.1783
      6 C6         -0.2004   -2.8650    0.0570 C.3       1 <0>        -0.0355
      7 C7          0.5736   -2.1391    1.1669 C.3       1 <0>        -0.0546
      8 C8          0.0243   -0.7235    1.3176 C.3       1 <0>        -0.0788
      9 C9          0.4081   -2.8969    2.4858 C.3       1 <0>        -0.1473
     10 C10         2.0564   -2.0708    0.7964 C.3       1 <0>        -0.1424
     11 C11        -1.6940   -2.8804    0.3880 C.3       1 <0>        -0.0845
     12 C12        -2.4355   -3.6537   -0.6718 C.ar      1 <0>        -0.0232
     13 C13        -2.9206   -3.0023   -1.7904 C.ar      1 <0>        -0.1063
     14 C14        -3.6008   -3.7117   -2.7626 C.ar      1 <0>        -0.0519
     15 C15        -3.7954   -5.0724   -2.6165 C.ar      1 <0>        -0.0548
     16 C16        -3.3094   -5.7239   -1.4983 C.ar      1 <0>        -0.0528
     17 C17        -2.6255   -5.0154   -0.5282 C.ar      1 <0>        -0.1183
     18 N1         -4.5245   -5.8318   -3.6570 N.pl3     1 <0>         0.0336
     19 O1         -4.9498   -5.2619   -4.6348 O.2       1 <0>        -0.1599
     20 O2         -4.6946   -7.0219   -3.5292 O.3       1 <0>        -0.1601
     21 H1          1.0042    1.8801    0.0026 H         1 <0>         0.0695
     22 H2         -0.5455    1.8639   -0.8728 H         1 <0>         0.0641
     23 H3         -0.5286    1.8543    0.9071 H         1 <0>         0.0643
     24 H4         -0.0153   -0.0497   -2.0777 H         1 <0>         0.1143
     25 H5          0.4268   -2.1679   -3.2805 H         1 <0>         0.1009
     26 H6          0.2789   -3.8121   -2.4009 H         1 <0>         0.0971
     27 H7          0.1684   -3.8855   -0.0461 H         1 <0>         0.0820
     28 H8          0.6494   -0.1689    2.0175 H         1 <0>         0.0754
     29 H9         -0.9903   -0.7780    1.7122 H         1 <0>         0.0780
     30 H10         0.7972   -3.9090    2.3746 H         1 <0>         0.0589
     31 H11         0.9579   -2.3807    3.2728 H         1 <0>         0.0595
     32 H12        -0.6486   -2.9407    2.7495 H         1 <0>         0.0590
     33 H13         2.1719   -1.5273   -0.1414 H         1 <0>         0.0616
     34 H14         2.6046   -1.5554    1.5850 H         1 <0>         0.0559
     35 H15         2.4491   -3.0811    0.6814 H         1 <0>         0.0542
     36 H16        -1.8464   -3.3549    1.3574 H         1 <0>         0.0883
     37 H17        -2.0695   -1.8577    0.4211 H         1 <0>         0.0865
     38 H18        -2.7686   -1.9392   -1.9046 H         1 <0>         0.1444
     39 H19        -3.9804   -3.2026   -3.6362 H         1 <0>         0.1518
     40 H20        -3.4618   -6.7870   -1.3839 H         1 <0>         0.1524
     41 H21        -2.2427   -5.5250    0.3436 H         1 <0>         0.1456
@<TRIPOS>BOND
     1    1    2 1
     2    1   21 1
     3    1   22 1
     4    1   23 1
     5    2    8 1
     6    2    3 2
     7    3    4 1
     8    3   24 1
     9    4    5 2
    10    4    6 1
    11    5   25 1
    12    5   26 1
    13    6    7 1
    14    6   11 1
    15    6   27 1
    16    7    8 1
    17    7    9 1
    18    7   10 1
    19    8   28 1
    20    8   29 1
    21    9   30 1
    22    9   31 1
    23    9   32 1
    24   10   33 1
    25   10   34 1
    26   10   35 1
    27   11   12 1
    28   11   36 1
    29   11   37 1
    30   12   17 ar
    31   12   13 ar
    32   13   14 ar
    33   13   38 1
    34   14   15 ar
    35   14   39 1
    36   15   16 ar
    37   15   18 1
    38   16   17 ar
    39   16   40 1
    40   17   41 1
    41   18   19 2
    42   18   20 1
@<TRIPOS>MOLECULE
CHEMBL296766
   69    72     0     0     0
SMALL
USER_CHARGES

@<TRIPOS>ATOM
      1 C1         -0.0187    1.5258    0.0104 C.3       1 <0>        -0.1729
      2 C2          0.0021   -0.0041    0.0020 C.3       1 <0>         0.1043
      3 N1         -1.3723   -0.5112    0.0124 N.am      1 <0>        -0.6131
      4 C3         -2.0716   -0.7579   -1.2510 C.3       1 <0>         0.1114
      5 C4         -1.8159   -2.1971   -1.7029 C.3       1 <0>        -0.1670
      6 C5         -1.9934   -0.7507    1.1843 C.2       1 <0>         0.5506
      7 O1         -3.1343   -1.1716    1.1930 O.2       1 <0>        -0.5408
      8 C6         -1.2912   -0.5029    2.4530 C.2       1 <0>        -0.2251
      9 C7         -1.9041   -0.7393    3.6094 C.2       1 <0>        -0.0059
     10 C8         -3.3202   -1.2706    3.8067 C.3       1 <0>        -0.0910
     11 C9         -3.5859   -1.2697    5.3370 C.3       1 <0>        -0.1220
     12 C10        -2.5956   -0.2145    5.8458 C.3       1 <0>        -0.0782
     13 C11        -1.3417   -0.5441    4.9861 C.3       1 <0>        -0.0418
     14 C12        -0.3511    0.5878    5.1696 C.3       1 <0>        -0.1026
     15 C13         0.0817    0.5849    6.6456 C.3       1 <0>        -0.1184
     16 C14        -1.1181    0.7271    7.5756 C.3       1 <0>        -0.0654
     17 C15        -2.1797   -0.3492    7.2988 C.3       1 <0>        -0.0800
     18 C16        -3.3816   -0.1456    8.2202 C.3       1 <0>        -0.1091
     19 C17        -2.9341   -0.2181    9.6838 C.3       1 <0>        -0.1311
     20 C18        -1.8913    0.8678    9.9383 C.3       1 <0>         0.1531
     21 C19        -0.6734    0.6158    9.0318 C.3       1 <0>        -0.0631
     22 C20         0.3958    1.6600    9.3573 C.3       1 <0>        -0.1163
     23 C21         0.9242    1.3814   10.7677 C.3       1 <0>        -0.1339
     24 C22        -0.2137    1.1542   11.7195 C.2       1 <0>         0.5168
     25 O2          0.0149    1.2226   12.9086 O.2       1 <0>        -0.5519
     26 N2         -1.4773    0.9002   11.3313 N.am      1 <0>        -0.6044
     27 C23        -2.4776    0.6139   12.3626 C.3       1 <0>         0.0776
     28 C24        -0.1109   -0.7839    9.2872 C.3       1 <0>        -0.1517
     29 C25        -0.7104   -1.8499    5.4732 C.3       1 <0>        -0.1456
     30 H1          1.0039    1.9031    0.0027 H         1 <0>         0.0680
     31 H2         -0.5459    1.8868   -0.8726 H         1 <0>         0.0583
     32 H3         -0.5289    1.8773    0.9072 H         1 <0>         0.0591
     33 H4          0.5123   -0.3556   -0.8948 H         1 <0>         0.0786
     34 H5          0.5293   -0.3651    0.8851 H         1 <0>         0.0808
     35 H6         -3.1417   -0.6062   -1.1097 H         1 <0>         0.0830
     36 H7         -1.7041   -0.0678   -2.0105 H         1 <0>         0.0747
     37 H8         -0.7458   -2.3488   -1.8443 H         1 <0>         0.0543
     38 H9         -2.1835   -2.8871   -0.9434 H         1 <0>         0.0586
     39 H10        -2.3362   -2.3807   -2.6429 H         1 <0>         0.0659
     40 H11        -0.2780   -0.1291    2.4453 H         1 <0>         0.1301
     41 H12        -4.0362   -0.6210    3.3031 H         1 <0>         0.0869
     42 H13        -3.3963   -2.2850    3.4151 H         1 <0>         0.0832
     43 H14        -4.6124   -0.9725    5.5515 H         1 <0>         0.0705
     44 H15        -3.3664   -2.2463    5.7685 H         1 <0>         0.0708
     45 H16        -2.9703    0.7896    5.6470 H         1 <0>         0.0801
     46 H17         0.5162    0.4288    4.5288 H         1 <0>         0.0657
     47 H18        -0.8248    1.5383    4.9243 H         1 <0>         0.0666
     48 H19         0.5944   -0.3517    6.8652 H         1 <0>         0.0728
     49 H20         0.7672    1.4146    6.8181 H         1 <0>         0.0675
     50 H21        -1.5750    1.7041    7.4182 H         1 <0>         0.0712
     51 H22        -1.7412   -1.3332    7.4649 H         1 <0>         0.0864
     52 H23        -3.8261    0.8304    8.0253 H         1 <0>         0.0649
     53 H24        -4.1207   -0.9235    8.0285 H         1 <0>         0.0713
     54 H25        -3.7928   -0.0594   10.3362 H         1 <0>         0.0711
     55 H26        -2.4979   -1.1968    9.8840 H         1 <0>         0.0740
     56 H27        -2.3230    1.8345    9.6791 H         1 <0>         0.0698
     57 H28         1.2116    1.5873    8.6381 H         1 <0>         0.0831
     58 H29        -0.0411    2.6578    9.3189 H         1 <0>         0.0710
     59 H30         1.5584    0.4951   10.7463 H         1 <0>         0.1015
     60 H31         1.5129    2.2338   11.1068 H         1 <0>         0.0997
     61 H32        -2.4885   -0.4559   12.5711 H         1 <0>         0.0539
     62 H33        -2.2273    1.1589   13.2727 H         1 <0>         0.0787
     63 H34        -3.4612    0.9257   12.0112 H         1 <0>         0.0699
     64 H35         0.7428   -0.9575    8.6321 H         1 <0>         0.0639
     65 H36         0.2067   -0.8637   10.3268 H         1 <0>         0.0551
     66 H37        -0.8815   -1.5277    9.0845 H         1 <0>         0.0658
     67 H38         0.1068   -2.1287    4.8079 H         1 <0>         0.0558
     68 H39        -0.3255   -1.7126    6.4837 H         1 <0>         0.0747
     69 H40        -1.4627   -2.6386    5.4750 H         1 <0>         0.0602
@<TRIPOS>BOND
     1    1    2 1
     2    1   30 1
     3    1   31 1
     4    1   32 1
     5    2    3 1
     6    2   33 1
     7    2   34 1
     8    3    4 1
     9    3    6 am
    10    4    5 1
    11    4   35 1
    12    4   36 1
    13    5   37 1
    14    5   38 1
    15    5   39 1
    16    6    7 2
    17    6    8 1
    18    8    9 2
    19    8   40 1
    20    9   13 1
    21    9   10 1
    22   10   11 1
    23   10   41 1
    24   10   42 1
    25   11   12 1
    26   11   43 1
    27   11   44 1
    28   12   17 1
    29   12   13 1
    30   12   45 1
    31   13   14 1
    32   13   29 1
    33   14   15 1
    34   14   46 1
    35   14   47 1
    36   15   16 1
    37   15   48 1
    38   15   49 1
    39   16   21 1
    40   16   17 1
    41   16   50 1
    42   17   18 1
    43   17   51 1
    44   18   19 1
    45   18   52 1
    46   18   53 1
    47   19   20 1
    48   19   54 1
    49   19   55 1
    50   20   26 1
    51   20   21 1
    52   20   56 1
    53   21   22 1
    54   21   28 1
    55   22   23 1
    56   22   57 1
    57   22   58 1
    58   23   24 1
    59   23   59 1
    60   23   60 1
    61   24   25 2
    62   24   26 am
    63   26   27 1
    64   27   61 1
    65   27   62 1
    66   27   63 1
    67   28   64 1
    68   28   65 1
    69   28   66 1
    70   29   67 1
    71   29   68 1
    72   29   69 1
@<TRIPOS>MOLECULE
CHEMBL207706
   34    37     0     0     0
SMALL
USER_CHARGES

@<TRIPOS>ATOM
      1 C1         -0.0178    1.4608    0.0101 C.3       1 <0>         0.0652
      2 N1          0.0021   -0.0041    0.0020 N.pl3     1 <0>        -0.4629
      3 C2         -0.0894   -0.7883   -1.1155 C.ar      1 <0>         0.1145
      4 C3         -0.2109   -0.4661   -2.4646 C.ar      1 <0>        -0.1568
      5 C4         -0.2815   -1.5245   -3.3612 C.ar      1 <0>         0.1250
      6 C5         -0.2334   -2.8498   -2.9447 C.ar      1 <0>        -0.1716
      7 C6         -0.1140   -3.1938   -1.6223 C.ar      1 <0>        -0.0477
      8 C7         -0.0410   -2.1458   -0.6958 C.ar      1 <0>        -0.1040
      9 C8          0.0833   -2.1182    0.7391 C.2       1 <0>        -0.1505
     10 C9          0.1209   -0.7979    1.1107 C.2       1 <0>         0.0993
     11 C10         0.2481   -0.4340    2.5374 C.ar      1 <0>        -0.0218
     12 C11        -0.0218    0.8510    2.9917 C.ar      1 <0>        -0.1222
     13 C12         0.0851    1.1335    4.3398 C.ar      1 <0>        -0.1182
     14 C13         0.4558    0.1379    5.2266 C.ar      1 <0>        -0.1134
     15 C14         0.7356   -1.1391    4.7753 C.ar      1 <0>        -0.1134
     16 C15         0.6476   -1.4350    3.4291 C.ar      1 <0>        -0.0609
     17 C16         1.0204   -2.8048    2.9324 C.3       1 <0>        -0.0806
     18 C17         0.1578   -3.2376    1.7417 C.3       1 <0>        -0.0426
     19 O1         -0.4019   -1.2557   -4.6882 O.3       1 <0>        -0.5005
     20 H1          1.0037    1.8377    0.0610 H         1 <0>         0.0748
     21 H2         -0.4936    1.8227   -0.9013 H         1 <0>         0.0873
     22 H3         -0.5782    1.8118    0.8766 H         1 <0>         0.0890
     23 H4         -0.2483    0.5603   -2.7987 H         1 <0>         0.1325
     24 H5         -0.2921   -3.6333   -3.6857 H         1 <0>         0.1267
     25 H6         -0.0780   -4.2268   -1.3094 H         1 <0>         0.1359
     26 H7         -0.3128    1.6238    2.2957 H         1 <0>         0.1282
     27 H8         -0.1200    2.1304    4.7012 H         1 <0>         0.1264
     28 H9          0.5276    0.3603    6.2810 H         1 <0>         0.1254
     29 H10         1.0233   -1.9073    5.4777 H         1 <0>         0.1284
     30 H11         2.0687   -2.7998    2.6336 H         1 <0>         0.0809
     31 H12         0.8883   -3.5229    3.7418 H         1 <0>         0.0821
     32 H13        -0.8474   -3.4877    2.0811 H         1 <0>         0.0755
     33 H14         0.6099   -4.1127    1.2750 H         1 <0>         0.0799
     34 H15         0.4431   -1.1703   -5.1504 H         1 <0>         0.3898
@<TRIPOS>BOND
     1    1    2 1
     2    1   20 1
     3    1   21 1
     4    1   22 1
     5    2   10 1
     6    2    3 1
     7    3    8 ar
     8    3    4 ar
     9    4    5 ar
    10    4   23 1
    11    5    6 ar
    12    5   19 1
    13    6    7 ar
    14    6   24 1
    15    7    8 ar
    16    7   25 1
    17    8    9 1
    18    9   18 1
    19    9   10 2
    20   10   11 1
    21   11   16 ar
    22   11   12 ar
    23   12   13 ar
    24   12   26 1
    25   13   14 ar
    26   13   27 1
    27   14   15 ar
    28   14   28 1
    29   15   16 ar
    30   15   29 1
    31   16   17 1
    32   17   18 1
    33   17   30 1
    34   17   31 1
    35   18   32 1
    36   18   33 1
    37   19   34 1
@<TRIPOS>MOLECULE
CHEMBL389077
   35    37     0     0     0
SMALL
USER_CHARGES

@<TRIPOS>ATOM
      1 C1         -0.0184    1.5028    0.0103 C.3       1 <0>        -0.1180
      2 C2          0.0021   -0.0041    0.0020 C.ar      1 <0>        -0.0659
      3 C3          0.0057   -0.6921   -1.2065 C.ar      1 <0>         0.1832
      4 C4          0.0241   -2.0830   -1.2194 C.ar      1 <0>        -0.1010
      5 C5          0.0392   -2.7847   -0.0348 C.ar      1 <0>        -0.0555
      6 C6          0.0361   -2.0980    1.1826 C.ar      1 <0>        -0.0066
      7 C7          0.0228   -0.6989    1.1923 C.ar      1 <0>         0.0069
      8 Cl1         0.0260    0.1603    2.7007 Cl        1 <0>        -0.0381
      9 C8          0.0513   -2.8244    2.4166 C.1       1 <0>         0.2458
     10 N1          0.0634   -3.4006    3.3956 N.1       1 <0>        -0.3881
     11 N2         -0.0095    0.0148   -2.4096 N.am      1 <0>        -0.5840
     12 C9          1.1935    0.4460   -3.1328 C.3       1 <0>         0.1215
     13 C10         0.7155    0.7660   -4.5636 C.3       1 <0>        -0.0944
     14 H1          0.8336   -0.0743   -5.2478 H         1 <0>         0.1093
     15 C11        -0.7701    1.1472   -4.3182 C.3       1 <0>        -0.1153
     16 H2         -1.4148    0.8892   -5.1584 H         1 <0>         0.1228
     17 C12        -1.1275    0.3836   -3.0587 C.2       1 <0>         0.5274
     18 O1         -2.2572    0.1425   -2.6892 O.2       1 <0>        -0.5084
     19 C13        -0.7681    2.6549   -4.0188 C.3       1 <0>        -0.1047
     20 C14         0.5811    3.2181   -4.4832 C.3       1 <0>        -0.1574
     21 C15         1.3989    2.0444   -5.0689 C.3       1 <0>         0.1115
     22 H3          1.3589    2.0851   -6.1574 H         1 <0>         0.0701
     23 O2          2.7568    2.0832   -4.6253 O.3       1 <0>        -0.5600
     24 H4          1.0042    1.8801    0.0026 H         1 <0>         0.0833
     25 H5         -0.5455    1.8639   -0.8728 H         1 <0>         0.0715
     26 H6         -0.5286    1.8543    0.9071 H         1 <0>         0.0804
     27 H7          0.0262   -2.6134   -2.1602 H         1 <0>         0.1452
     28 H8          0.0531   -3.8646   -0.0463 H         1 <0>         0.1509
     29 H9          1.6151    1.3368   -2.6672 H         1 <0>         0.0884
     30 H10         1.9310   -0.3564   -3.1514 H         1 <0>         0.0863
     31 H11        -1.5784    3.1409   -4.5623 H         1 <0>         0.0818
     32 H12        -0.8887    2.8195   -2.9481 H         1 <0>         0.0707
     33 H13         0.4218    3.9829   -5.2434 H         1 <0>         0.0777
     34 H14         1.1178    3.6421   -3.6345 H         1 <0>         0.0783
     35 H15         3.2423    2.8684   -4.9131 H         1 <0>         0.3848
@<TRIPOS>BOND
     1    1    2 1
     2    1   24 1
     3    1   25 1
     4    1   26 1
     5    2    7 ar
     6    2    3 ar
     7    3    4 ar
     8    3   11 1
     9    4    5 ar
    10    4   27 1
    11    5    6 ar
    12    5   28 1
    13    6    7 ar
    14    6    9 1
    15    7    8 1
    16    9   10 3
    17   11   17 am
    18   11   12 1
    19   12   13 1
    20   12   29 1
    21   12   30 1
    22   13   14 1
    23   13   21 1
    24   13   15 1
    25   15   16 1
    26   15   17 1
    27   15   19 1
    28   17   18 2
    29   19   20 1
    30   19   31 1
    31   19   32 1
    32   20   21 1
    33   20   33 1
    34   20   34 1
    35   21   22 1
    36   21   23 1
    37   23   35 1
@<TRIPOS>MOLECULE
CHEMBL248841
   40    42     0     0     0
SMALL
USER_CHARGES

@<TRIPOS>ATOM
      1 C1         -0.0036    1.3688    0.2389 C.ar      1 <0>        -0.1934
      2 C2          1.1802    2.0569    0.2306 C.ar      1 <0>        -0.0466
      3 C3          2.3650    1.3476   -0.0182 C.ar      1 <0>        -0.1107
      4 C4          2.2958   -0.0279   -0.2476 C.ar      1 <0>         0.2215
      5 N1          1.1358   -0.6510   -0.2307 N.ar      1 <0>        -0.5220
      6 C5          0.0021   -0.0041    0.0020 C.ar      1 <0>         0.4396
      7 N2         -1.1944   -0.7035    0.0097 N.pl3     1 <0>        -0.5851
      8 C6         -1.2034   -2.1729    0.0080 C.3       1 <0>         0.1173
      9 C7         -2.0727   -2.6586   -1.1558 C.3       1 <0>        -0.1355
     10 C8         -3.4624   -2.0249   -1.0503 C.3       1 <0>        -0.0826
     11 C9         -4.3344   -2.5279   -2.2040 C.3       1 <0>        -0.1141
     12 C10        -3.6808   -2.1512   -3.5352 C.3       1 <0>        -0.1229
     13 C11        -3.5446   -0.6301   -3.6260 C.3       1 <0>        -0.1189
     14 C12        -2.6803   -0.1240   -2.4692 C.3       1 <0>        -0.1154
     15 C13        -3.3375   -0.5020   -1.1405 C.3       1 <0>        -0.0976
     16 C14        -2.4790    0.0093    0.0258 C.3       1 <0>         0.1165
     17 C15         3.6266    2.0247   -0.0372 C.1       1 <0>         0.2439
     18 N3          4.6275    2.5618   -0.0523 N.1       1 <0>        -0.3888
     19 C16         1.2098    3.5424    0.4826 C.3       1 <0>         0.5052
     20 F1         -0.0925    4.0044    0.7011 F         1 <0>        -0.1686
     21 F2          1.9943    3.8087    1.6100 F         1 <0>        -0.1663
     22 F3          1.7551    4.1933   -0.6293 F         1 <0>        -0.1663
     23 H1         -0.9326    1.8848    0.4317 H         1 <0>         0.1583
     24 H2          3.2006   -0.5851   -0.4407 H         1 <0>         0.1801
     25 H3         -0.1862   -2.5445   -0.1157 H         1 <0>         0.1013
     26 H4         -1.6158   -2.5369    0.9490 H         1 <0>         0.0687
     27 H5         -1.6115   -2.3686   -2.0999 H         1 <0>         0.0769
     28 H6         -2.1637   -3.7439   -1.1134 H         1 <0>         0.0765
     29 H7         -3.9165   -2.2980   -0.0977 H         1 <0>         0.0734
     30 H8         -4.4319   -3.6117   -2.1405 H         1 <0>         0.0638
     31 H9         -5.3212   -2.0693   -2.1407 H         1 <0>         0.0633
     32 H10        -2.6934   -2.6086   -3.5972 H         1 <0>         0.0642
     33 H11        -4.2994   -2.5102   -4.3578 H         1 <0>         0.0609
     34 H12        -3.0759   -0.3634   -4.5732 H         1 <0>         0.0613
     35 H13        -4.5324   -0.1730   -3.5683 H         1 <0>         0.0617
     36 H14        -1.6915   -0.5789   -2.5280 H         1 <0>         0.0673
     37 H15        -2.5863    0.9600   -2.5328 H         1 <0>         0.0603
     38 H16        -4.3288   -0.0522   -1.0846 H         1 <0>         0.0865
     39 H17        -2.9899   -0.1801    0.9698 H         1 <0>         0.0785
     40 H18        -2.3044    1.0791   -0.0888 H         1 <0>         0.0880
@<TRIPOS>BOND
     1    1    6 ar
     2    1    2 ar
     3    1   23 1
     4    2    3 ar
     5    2   19 1
     6    3    4 ar
     7    3   17 1
     8    4    5 ar
     9    4   24 1
    10    5    6 ar
    11    6    7 1
    12    7   16 1
    13    7    8 1
    14    8    9 1
    15    8   25 1
    16    8   26 1
    17    9   10 1
    18    9   27 1
    19    9   28 1
    20   10   15 1
    21   10   11 1
    22   10   29 1
    23   11   12 1
    24   11   30 1
    25   11   31 1
    26   12   13 1
    27   12   32 1
    28   12   33 1
    29   13   14 1
    30   13   34 1
    31   13   35 1
    32   14   15 1
    33   14   36 1
    34   14   37 1
    35   15   16 1
    36   15   38 1
    37   16   39 1
    38   16   40 1
    39   17   18 3
    40   19   20 1
    41   19   21 1
    42   19   22 1
@<TRIPOS>MOLECULE
CHEMBL248841__1
   40    42     0     0     0
SMALL
USER_CHARGES

@<TRIPOS>ATOM
      1 C1         -0.0036    1.3688    0.2389 C.ar      1 <0>        -0.1934
      2 C2          1.1802    2.0569    0.2307 C.ar      1 <0>        -0.0467
      3 C3          2.3650    1.3476   -0.0182 C.ar      1 <0>        -0.1100
      4 C4          2.2958   -0.0279   -0.2476 C.ar      1 <0>         0.2216
      5 N1          1.1358   -0.6510   -0.2307 N.ar      1 <0>        -0.5218
      6 C5          0.0021   -0.0041    0.0020 C.ar      1 <0>         0.4388
      7 N2         -1.1944   -0.7035    0.0097 N.pl3     1 <0>        -0.5883
      8 C6         -1.2035   -2.1729    0.0081 C.3       1 <0>         0.1173
      9 C7         -2.0726   -2.6575   -1.1563 C.3       1 <0>        -0.1318
     10 C8         -3.4619   -2.0227   -1.0518 C.3       1 <0>        -0.0825
     11 C9         -4.3362   -2.5335   -2.1993 C.3       1 <0>        -0.1144
     12 C10        -5.7254   -1.9001   -2.1061 C.3       1 <0>        -0.1212
     13 C11        -5.5978   -0.3784   -2.2035 C.3       1 <0>        -0.1193
     14 C12        -4.7277    0.1329   -1.0540 C.3       1 <0>        -0.1143
     15 C13        -3.3373   -0.5001   -1.1428 C.3       1 <0>        -0.0957
     16 C14        -2.4787    0.0091    0.0258 C.3       1 <0>         0.1168
     17 C15         3.6266    2.0247   -0.0372 C.1       1 <0>         0.2439
     18 N3          4.6275    2.5618   -0.0523 N.1       1 <0>        -0.3883
     19 C16         1.2098    3.5424    0.4827 C.3       1 <0>         0.5053
     20 F1         -0.0925    4.0044    0.7012 F         1 <0>        -0.1685
     21 F2          1.9943    3.8086    1.6100 F         1 <0>        -0.1662
     22 F3          1.7551    4.1933   -0.6292 F         1 <0>        -0.1662
     23 H1         -0.9326    1.8848    0.4317 H         1 <0>         0.1586
     24 H2          3.2006   -0.5851   -0.4407 H         1 <0>         0.1806
     25 H3         -0.1863   -2.5447   -0.1155 H         1 <0>         0.1021
     26 H4         -1.6165   -2.5370    0.9488 H         1 <0>         0.0694
     27 H5         -1.6105   -2.3677   -2.1001 H         1 <0>         0.0689
     28 H6         -2.1645   -3.7428   -1.1143 H         1 <0>         0.0786
     29 H7         -3.9152   -2.2944   -0.0985 H         1 <0>         0.0738
     30 H8         -3.8783   -2.2657   -3.1515 H         1 <0>         0.0620
     31 H9         -4.4262   -3.6177   -2.1323 H         1 <0>         0.0639
     32 H10        -6.3473   -2.2658   -2.9232 H         1 <0>         0.0625
     33 H11        -6.1831   -2.1663   -1.1533 H         1 <0>         0.0623
     34 H12        -5.1366   -0.1124   -3.1546 H         1 <0>         0.0621
     35 H13        -6.5873    0.0743   -2.1397 H         1 <0>         0.0642
     36 H14        -4.6379    1.2172   -1.1211 H         1 <0>         0.0659
     37 H15        -5.1884   -0.1347   -0.1031 H         1 <0>         0.0661
     38 H16        -2.8727   -0.2282   -2.0906 H         1 <0>         0.0781
     39 H17        -2.9906   -0.1820    0.9690 H         1 <0>         0.0782
     40 H18        -2.3041    1.0791   -0.0867 H         1 <0>         0.0878
@<TRIPOS>BOND
     1    1    6 ar
     2    1    2 ar
     3    1   23 1
     4    2    3 ar
     5    2   19 1
     6    3    4 ar
     7    3   17 1
     8    4    5 ar
     9    4   24 1
    10    5    6 ar
    11    6    7 1
    12    7   16 1
    13    7    8 1
    14    8    9 1
    15    8   25 1
    16    8   26 1
    17    9   10 1
    18    9   27 1
    19    9   28 1
    20   10   15 1
    21   10   11 1
    22   10   29 1
    23   11   12 1
    24   11   30 1
    25   11   31 1
    26   12   13 1
    27   12   32 1
    28   12   33 1
    29   13   14 1
    30   13   34 1
    31   13   35 1
    32   14   15 1
    33   14   36 1
    34   14   37 1
    35   15   16 1
    36   15   38 1
    37   16   39 1
    38   16   40 1
    39   17   18 3
    40   19   20 1
    41   19   21 1
    42   19   22 1
@<TRIPOS>MOLECULE
CHEMBL248841__2
   40    42     0     0     0
SMALL
USER_CHARGES

@<TRIPOS>ATOM
      1 C1         -0.0079    1.3713   -0.2200 C.ar      1 <0>        -0.1933
      2 C2          1.1758    2.0594   -0.2270 C.ar      1 <0>        -0.0467
      3 C3          2.3651    1.3476   -0.0083 C.ar      1 <0>        -0.1101
      4 C4          2.3002   -0.0303    0.2075 C.ar      1 <0>         0.2216
      5 N1          1.1400   -0.6533    0.2061 N.ar      1 <0>        -0.5219
      6 C5          0.0021   -0.0041    0.0020 C.ar      1 <0>         0.4389
      7 N2         -1.1944   -0.7035    0.0097 N.pl3     1 <0>        -0.5879
      8 C6         -1.2035   -2.1729    0.0081 C.3       1 <0>         0.1171
      9 C7         -2.0551   -2.6602    1.1842 C.3       1 <0>        -0.1321
     10 C8         -3.4458   -2.0252    1.1019 C.3       1 <0>        -0.0824
     11 C9         -4.3028   -2.5386    2.2612 C.3       1 <0>        -0.1143
     12 C10        -5.6933   -1.9051    2.1902 C.3       1 <0>        -0.1212
     13 C11        -5.5642   -0.3836    2.2892 C.3       1 <0>        -0.1193
     14 C12        -4.7114    0.1304    1.1280 C.3       1 <0>        -0.1138
     15 C13        -3.3198   -0.5028    1.1945 C.3       1 <0>        -0.0966
     16 C14        -2.4787    0.0091    0.0258 C.3       1 <0>         0.1171
     17 C15         3.6270    2.0244   -0.0071 C.1       1 <0>         0.2439
     18 N3          4.6281    2.5613   -0.0061 N.1       1 <0>        -0.3883
     19 C16         1.2009    3.5473   -0.4645 C.3       1 <0>         0.5053
     20 F1         -0.1053    4.0114   -0.6540 F         1 <0>        -0.1685
     21 F2          1.7669    4.1870    0.6434 F         1 <0>        -0.1662
     22 F3          1.9642    3.8249   -1.6036 F         1 <0>        -0.1661
     23 H1         -0.9412    1.8906   -0.3807 H         1 <0>         0.1586
     24 H2          3.2085   -0.5896    0.3767 H         1 <0>         0.1806
     25 H3         -1.6305   -2.5348   -0.9272 H         1 <0>         0.0696
     26 H4         -0.1846   -2.5449    0.1155 H         1 <0>         0.1022
     27 H5         -2.1477   -3.7454    1.1410 H         1 <0>         0.0788
     28 H6         -1.5789   -2.3726    2.1216 H         1 <0>         0.0689
     29 H7         -3.9133   -2.2947    0.1548 H         1 <0>         0.0739
     30 H8         -4.3939   -3.6227    2.1930 H         1 <0>         0.0639
     31 H9         -3.8307   -2.2730    3.2071 H         1 <0>         0.0621
     32 H10        -6.1652   -2.1691    1.2438 H         1 <0>         0.0623
     33 H11        -6.3029   -2.2727    3.0157 H         1 <0>         0.0625
     34 H12        -6.5545    0.0692    2.2413 H         1 <0>         0.0643
     35 H13        -5.0889   -0.1197    3.2340 H         1 <0>         0.0622
     36 H14        -5.1863   -0.1351    0.1835 H         1 <0>         0.0662
     37 H15        -4.6206    1.2145    1.1963 H         1 <0>         0.0659
     38 H16        -2.8411   -0.2331    2.1359 H         1 <0>         0.0776
     39 H17        -2.3018    1.0780    0.1456 H         1 <0>         0.0876
     40 H18        -3.0089   -0.1726   -0.9091 H         1 <0>         0.0777
@<TRIPOS>BOND
     1    1    6 ar
     2    1    2 ar
     3    1   23 1
     4    2    3 ar
     5    2   19 1
     6    3    4 ar
     7    3   17 1
     8    4    5 ar
     9    4   24 1
    10    5    6 ar
    11    6    7 1
    12    7   16 1
    13    7    8 1
    14    8    9 1
    15    8   25 1
    16    8   26 1
    17    9   10 1
    18    9   27 1
    19    9   28 1
    20   10   15 1
    21   10   11 1
    22   10   29 1
    23   11   12 1
    24   11   30 1
    25   11   31 1
    26   12   13 1
    27   12   32 1
    28   12   33 1
    29   13   14 1
    30   13   34 1
    31   13   35 1
    32   14   15 1
    33   14   36 1
    34   14   37 1
    35   15   16 1
    36   15   38 1
    37   16   39 1
    38   16   40 1
    39   17   18 3
    40   19   20 1
    41   19   21 1
    42   19   22 1
@<TRIPOS>MOLECULE
CHEMBL248841__3
   40    42     0     0     0
SMALL
USER_CHARGES

@<TRIPOS>ATOM
      1 C1         -0.0079    1.3713   -0.2200 C.ar      1 <0>        -0.1934
      2 C2          1.1758    2.0594   -0.2269 C.ar      1 <0>        -0.0466
      3 C3          2.3651    1.3476   -0.0083 C.ar      1 <0>        -0.1108
      4 C4          2.3002   -0.0303    0.2075 C.ar      1 <0>         0.2215
      5 N1          1.1400   -0.6533    0.2061 N.ar      1 <0>        -0.5222
      6 C5          0.0021   -0.0041    0.0020 C.ar      1 <0>         0.4397
      7 N2         -1.1944   -0.7035    0.0097 N.pl3     1 <0>        -0.5847
      8 C6         -1.2034   -2.1729    0.0081 C.3       1 <0>         0.1171
      9 C7         -2.0557   -2.6613    1.1832 C.3       1 <0>        -0.1358
     10 C8         -3.4467   -2.0275    1.0994 C.3       1 <0>        -0.0824
     11 C9         -4.3019   -2.5331    2.2645 C.3       1 <0>        -0.1141
     12 C10        -3.6290   -2.1596    3.5869 C.3       1 <0>        -0.1229
     13 C11        -3.4915   -0.6387    3.6793 C.3       1 <0>        -0.1190
     14 C12        -2.6441   -0.1299    2.5112 C.3       1 <0>        -0.1159
     15 C13        -3.3205   -0.5047    1.1914 C.3       1 <0>        -0.0985
     16 C14        -2.4790    0.0093    0.0258 C.3       1 <0>         0.1169
     17 C15         3.6270    2.0244   -0.0071 C.1       1 <0>         0.2439
     18 N3          4.6281    2.5613   -0.0061 N.1       1 <0>        -0.3888
     19 C16         1.2008    3.5474   -0.4644 C.3       1 <0>         0.5052
     20 F1         -0.1053    4.0114   -0.6539 F         1 <0>        -0.1686
     21 F2          1.7669    4.1870    0.6435 F         1 <0>        -0.1663
     22 F3          1.9642    3.8250   -1.6035 F         1 <0>        -0.1663
     23 H1         -0.9412    1.8906   -0.3806 H         1 <0>         0.1583
     24 H2          3.2085   -0.5896    0.3766 H         1 <0>         0.1801
     25 H3         -1.6295   -2.5347   -0.9277 H         1 <0>         0.0689
     26 H4         -0.1845   -2.5447    0.1161 H         1 <0>         0.1014
     27 H5         -2.1473   -3.7466    1.1396 H         1 <0>         0.0766
     28 H6         -1.5808   -2.3735    2.1212 H         1 <0>         0.0769
     29 H7         -3.9147   -2.2983    0.1530 H         1 <0>         0.0735
     30 H8         -5.2895   -2.0744    2.2166 H         1 <0>         0.0633
     31 H9         -4.4003   -3.6168    2.1999 H         1 <0>         0.0638
     32 H10        -4.2355   -2.5205    4.4176 H         1 <0>         0.0609
     33 H11        -2.6408   -2.6171    3.6335 H         1 <0>         0.0642
     34 H12        -4.4800   -0.1815    3.6371 H         1 <0>         0.0617
     35 H13        -3.0090   -0.3742    4.6203 H         1 <0>         0.0612
     36 H14        -2.5492    0.9540    2.5761 H         1 <0>         0.0604
     37 H15        -1.6546   -0.5849    2.5546 H         1 <0>         0.0672
     38 H16        -4.3126   -0.0548    1.1510 H         1 <0>         0.0873
     39 H17        -2.3021    1.0779    0.1481 H         1 <0>         0.0879
     40 H18        -3.0080   -0.1703   -0.9101 H         1 <0>         0.0779
@<TRIPOS>BOND
     1    1    6 ar
     2    1    2 ar
     3    1   23 1
     4    2    3 ar
     5    2   19 1
     6    3    4 ar
     7    3   17 1
     8    4    5 ar
     9    4   24 1
    10    5    6 ar
    11    6    7 1
    12    7   16 1
    13    7    8 1
    14    8    9 1
    15    8   25 1
    16    8   26 1
    17    9   10 1
    18    9   27 1
    19    9   28 1
    20   10   15 1
    21   10   11 1
    22   10   29 1
    23   11   12 1
    24   11   30 1
    25   11   31 1
    26   12   13 1
    27   12   32 1
    28   12   33 1
    29   13   14 1
    30   13   34 1
    31   13   35 1
    32   14   15 1
    33   14   36 1
    34   14   37 1
    35   15   16 1
    36   15   38 1
    37   16   39 1
    38   16   40 1
    39   17   18 3
    40   19   20 1
    41   19   21 1
    42   19   22 1
@<TRIPOS>MOLECULE
CHEMBL249072
   33    34     0     0     0
SMALL
USER_CHARGES

@<TRIPOS>ATOM
      1 C1          0.3603    1.4999    0.1938 C.3       1 <0>        -0.1486
      2 C2          0.1853   -0.0166    0.0907 C.3       1 <0>        -0.0942
      3 C3         -1.2941   -0.3715    0.2565 C.3       1 <0>        -0.1320
      4 C4         -1.4701   -1.8870    0.1182 C.3       1 <0>         0.1126
      5 N1         -0.5782   -2.5560    1.0751 N.pl3     1 <0>        -0.5887
      6 C5          0.8519   -2.2192    1.0621 C.3       1 <0>         0.1166
      7 C6          1.0019   -0.7000    1.1898 C.3       1 <0>        -0.1315
      8 C7         -1.0763   -3.4866    1.9731 C.ar      1 <0>         0.4386
      9 C8         -2.3787   -3.9587    1.8214 C.ar      1 <0>        -0.1931
     10 C9         -2.8677   -4.8779    2.7101 C.ar      1 <0>        -0.0468
     11 C10        -2.0320   -5.3143    3.7498 C.ar      1 <0>        -0.1101
     12 C11        -0.7382   -4.7985    3.8409 C.ar      1 <0>         0.2215
     13 N2         -0.3054   -3.9191    2.9610 N.ar      1 <0>        -0.5224
     14 C12        -2.5000   -6.2743    4.7037 C.1       1 <0>         0.2439
     15 N3         -2.8713   -7.0360    5.4603 N.1       1 <0>        -0.3883
     16 C13        -4.2717   -5.4088    2.5755 C.3       1 <0>         0.5054
     17 F1         -4.8890   -4.8190    1.4672 F         1 <0>        -0.1685
     18 F2         -4.2309   -6.7965    2.4029 F         1 <0>        -0.1662
     19 F3         -4.9984   -5.1038    3.7313 F         1 <0>        -0.1662
     20 H1          1.4138    1.7530    0.0745 H         1 <0>         0.0571
     21 H2         -0.2212    1.9868   -0.5890 H         1 <0>         0.0565
     22 H3          0.0131    1.8402    1.1694 H         1 <0>         0.0550
     23 H4          0.5330   -0.3568   -0.8848 H         1 <0>         0.0735
     24 H5         -1.6362   -0.0539    1.2415 H         1 <0>         0.0700
     25 H6         -1.8780    0.1342   -0.5125 H         1 <0>         0.0811
     26 H7         -2.5043   -2.1559    0.3332 H         1 <0>         0.0882
     27 H8         -1.2140   -2.1936   -0.8960 H         1 <0>         0.0781
     28 H9          1.3499   -2.7073    1.8999 H         1 <0>         0.1022
     29 H10         1.2974   -2.5529    0.1249 H         1 <0>         0.0696
     30 H11         2.0523   -0.4281    1.0851 H         1 <0>         0.0783
     31 H12         0.6382   -0.3793    2.1660 H         1 <0>         0.0690
     32 H13        -2.9966   -3.6024    1.0104 H         1 <0>         0.1589
     33 H14        -0.0855   -5.1260    4.6366 H         1 <0>         0.1806
@<TRIPOS>BOND
     1    1    2 1
     2    1   20 1
     3    1   21 1
     4    1   22 1
     5    2    7 1
     6    2    3 1
     7    2   23 1
     8    3    4 1
     9    3   24 1
    10    3   25 1
    11    4    5 1
    12    4   26 1
    13    4   27 1
    14    5    6 1
    15    5    8 1
    16    6    7 1
    17    6   28 1
    18    6   29 1
    19    7   30 1
    20    7   31 1
    21    8   13 ar
    22    8    9 ar
    23    9   10 ar
    24    9   32 1
    25   10   11 ar
    26   10   16 1
    27   11   12 ar
    28   11   14 1
    29   12   13 ar
    30   12   33 1
    31   14   15 3
    32   16   17 1
    33   16   18 1
    34   16   19 1
@<TRIPOS>MOLECULE
CHEMBL230053
   40    43     0     0     0
SMALL
USER_CHARGES

@<TRIPOS>ATOM
      1 C1         -0.0555    1.3090   -0.0590 C.ar      1 <0>        -0.1091
      2 C2          1.1195    2.0390   -0.0450 C.ar      1 <0>        -0.1165
      3 C3          2.3378    1.3909   -0.0433 C.ar      1 <0>        -0.0978
      4 C4          2.3829   -0.0026   -0.0557 C.ar      1 <0>        -0.0641
      5 C5          1.1953   -0.7330   -0.0697 C.ar      1 <0>        -0.0948
      6 C6         -0.0170   -0.0738   -0.0713 C.ar      1 <0>        -0.1184
      7 C7          3.6880   -0.7047   -0.0544 C.ar      1 <0>         0.0261
      8 C8          3.9299   -1.7280    0.8546 C.ar      1 <0>        -0.1288
      9 C9          5.1532   -2.3822    0.8519 C.ar      1 <0>         0.1721
     10 C10         6.1419   -2.0189   -0.0578 C.ar      1 <0>        -0.1365
     11 C11         5.9157   -1.0069   -0.9639 C.ar      1 <0>        -0.0444
     12 C12         4.6871   -0.3425   -0.9776 C.ar      1 <0>        -0.0304
     13 C13         4.4471    0.7062   -1.9227 C.1       1 <0>         0.2528
     14 N1          4.2566    1.5382   -2.6724 N.1       1 <0>        -0.4057
     15 N2          5.3944   -3.4116    1.7682 N.am      1 <0>        -0.5237
     16 C14         4.5470   -3.7594    2.7621 C.2       1 <0>         0.5411
     17 O1          3.5121   -3.2094    3.0724 O.2       1 <0>        -0.4394
     18 C15         5.1630   -4.9773    3.4023 C.3       1 <0>         0.0478
     19 H1          4.6062   -5.8897    3.1885 H         1 <0>         0.1568
     20 C16         5.4150   -4.7765    4.9101 C.3       1 <0>         0.1107
     21 H2          4.5664   -5.1300    5.4958 H         1 <0>         0.0959
     22 C17         6.6632   -5.6639    5.1551 C.3       1 <0>        -0.1696
     23 C18         7.3266   -5.8080    3.7673 C.3       1 <0>         0.1615
     24 N3          6.5369   -4.9888    2.8315 N.am      1 <0>        -0.6284
     25 C19         6.4936   -4.1818    1.7672 C.2       1 <0>         0.7425
     26 O2          7.3483   -4.1468    0.9039 O.2       1 <0>        -0.5164
     27 O3          5.6952   -3.4057    5.2009 O.3       1 <0>        -0.5552
     28 H3         -1.0066    1.8206   -0.0557 H         1 <0>         0.1255
     29 H4          1.0833    3.1184   -0.0358 H         1 <0>         0.1262
     30 H5          3.2544    1.9619   -0.0328 H         1 <0>         0.1210
     31 H6          1.2241   -1.8126   -0.0797 H         1 <0>         0.1272
     32 H7         -0.9375   -0.6385   -0.0818 H         1 <0>         0.1277
     33 H8          3.1661   -2.0134    1.5627 H         1 <0>         0.1629
     34 H9          7.0916   -2.5331   -0.0528 H         1 <0>         0.1697
     35 H10         6.6872   -0.7295   -1.6669 H         1 <0>         0.1458
     36 H11         7.3444   -5.1760    5.8522 H         1 <0>         0.0957
     37 H12         6.3650   -6.6407    5.5360 H         1 <0>         0.1010
     38 H13         8.3564   -5.4527    3.8063 H         1 <0>         0.0901
     39 H14         7.3018   -6.8496    3.4471 H         1 <0>         0.0871
     40 H15         5.8609   -3.2281    6.1369 H         1 <0>         0.3922
@<TRIPOS>BOND
     1    1    6 ar
     2    1    2 ar
     3    1   28 1
     4    2    3 ar
     5    2   29 1
     6    3    4 ar
     7    3   30 1
     8    4    5 ar
     9    4    7 1
    10    5    6 ar
    11    5   31 1
    12    6   32 1
    13    7   12 ar
    14    7    8 ar
    15    8    9 ar
    16    8   33 1
    17    9   10 ar
    18    9   15 1
    19   10   11 ar
    20   10   34 1
    21   11   12 ar
    22   11   35 1
    23   12   13 1
    24   13   14 3
    25   15   25 am
    26   15   16 am
    27   16   17 2
    28   16   18 1
    29   18   19 1
    30   18   24 1
    31   18   20 1
    32   20   21 1
    33   20   22 1
    34   20   27 1
    35   22   23 1
    36   22   36 1
    37   22   37 1
    38   23   24 1
    39   23   38 1
    40   23   39 1
    41   24   25 am
    42   25   26 2
    43   27   40 1
@<TRIPOS>MOLECULE
CHEMBL307176
   60    63     0     0     0
SMALL
USER_CHARGES

@<TRIPOS>ATOM
      1 C1          0.3158    0.9325    1.0116 C.3       1 <0>        -0.2074
      2 C2         -0.0276   -0.0594   -0.0697 C.2       1 <0>         0.3615
      3 O1          0.6758   -0.1553   -1.0466 O.2       1 <0>        -0.4307
      4 C3         -1.1892   -0.8889    0.0613 C.3       1 <0>         0.0945
      5 C4         -1.6975   -1.4147   -1.3011 C.3       1 <0>        -0.1455
      6 C5         -1.7885   -2.9612   -1.2604 C.3       1 <0>        -0.1042
      7 C6         -1.9388   -3.1014    0.2430 C.3       1 <0>        -0.0763
      8 C7         -0.9230   -2.1075    0.8724 C.3       1 <0>        -0.0235
      9 C8         -1.0810   -1.9865    2.2972 C.3       1 <0>        -0.1118
     10 C9         -1.1347   -3.3747    3.0400 C.3       1 <0>        -0.1125
     11 C10        -0.9421   -4.5204    2.1290 C.3       1 <0>        -0.0698
     12 C11        -1.8717   -4.4541    0.8744 C.3       1 <0>        -0.0702
     13 C12        -1.4635   -5.5504   -0.1548 C.3       1 <0>        -0.0783
     14 C13        -1.0043   -6.7423    0.5501 C.2       1 <0>        -0.1169
     15 C14        -0.1641   -7.7269   -0.0396 C.2       1 <0>        -0.1635
     16 C15        -1.5052   -6.9554    1.9523 C.2       1 <0>         0.0385
     17 C16        -2.2021   -8.0512    2.2998 C.2       1 <0>        -0.2250
     18 C17        -2.6765   -8.1939    3.6114 C.2       1 <0>         0.3841
     19 O2         -3.1448   -9.2637    3.9997 O.2       1 <0>        -0.4728
     20 C18        -2.5326   -7.0646    4.6110 C.3       1 <0>        -0.1758
     21 C19        -2.3305   -5.7060    3.8623 C.3       1 <0>        -0.1130
     22 C20        -1.1490   -5.8560    2.8985 C.3       1 <0>        -0.0332
     23 C21         0.0746   -6.1608    3.6485 C.3       1 <0>        -0.1431
     24 C22         0.5629   -2.5326    0.4759 C.3       1 <0>        -0.1617
     25 O3         -2.2492   -0.1470    0.6960 O.3       1 <0>        -0.3347
     26 C23        -2.6921    0.9486    0.0593 C.2       1 <0>         0.4501
     27 O4         -2.2531    1.2333   -1.0298 O.2       1 <0>        -0.5013
     28 C24        -3.7369    1.8234    0.7028 C.3       1 <0>        -0.1491
     29 H1          1.2724    1.4024    0.7831 H         1 <0>         0.0880
     30 H2         -0.4605    1.6958    1.0644 H         1 <0>         0.0871
     31 H3          0.3840    0.4167    1.9695 H         1 <0>         0.0970
     32 H4         -2.6321   -1.0079   -1.6315 H         1 <0>         0.0827
     33 H5         -0.9410   -1.1410   -2.1397 H         1 <0>         0.0882
     34 H6         -2.6620   -3.3043   -1.7675 H         1 <0>         0.0785
     35 H7         -0.9097   -3.4611   -1.6048 H         1 <0>         0.0812
     36 H8         -3.0124   -2.7331    0.5193 H         1 <0>         0.0728
     37 H9         -0.1569   -1.4854    2.7590 H         1 <0>         0.0656
     38 H10        -2.0289   -1.4150    2.5617 H         1 <0>         0.0911
     39 H11        -0.4330   -3.4108    3.8518 H         1 <0>         0.0767
     40 H12        -2.1786   -3.4291    3.4279 H         1 <0>         0.0662
     41 H13         0.0847   -4.5870    1.7715 H         1 <0>         0.0793
     42 H14        -2.8567   -4.7772    1.2197 H         1 <0>         0.0658
     43 H15        -2.3307   -5.7379   -0.7518 H         1 <0>         0.0851
     44 H16        -0.6291   -5.1766   -0.7557 H         1 <0>         0.0810
     45 H17         0.1670   -7.6126   -1.0612 H         1 <0>         0.1108
     46 H18         0.1427   -8.5888    0.5343 H         1 <0>         0.1071
     47 H19        -2.3641   -8.8061    1.6156 H         1 <0>         0.1298
     48 H20        -3.4631   -6.9946    5.1846 H         1 <0>         0.0911
     49 H21        -1.7235   -7.1771    5.2958 H         1 <0>         0.1045
     50 H22        -3.2256   -5.4321    3.3640 H         1 <0>         0.0749
     51 H23        -2.1005   -4.9701    4.6311 H         1 <0>         0.0801
     52 H24         0.2789   -5.3550    4.3535 H         1 <0>         0.0721
     53 H25        -0.0566   -7.0957    4.1933 H         1 <0>         0.0616
     54 H26         0.9105   -6.2582    2.9558 H         1 <0>         0.0635
     55 H27         1.2383   -1.6941    0.6462 H         1 <0>         0.0566
     56 H28         0.8739   -3.3796    1.0874 H         1 <0>         0.0763
     57 H29         0.5916   -2.8143   -0.5767 H         1 <0>         0.0701
     58 H30        -4.0086    1.4103    1.6742 H         1 <0>         0.0933
     59 H31        -3.3377    2.8291    0.8344 H         1 <0>         0.1068
     60 H32        -4.6200    1.8636    0.0651 H         1 <0>         0.1065
@<TRIPOS>BOND
     1    1    2 1
     2    1   29 1
     3    1   30 1
     4    1   31 1
     5    2    3 2
     6    2    4 1
     7    4    8 1
     8    4    5 1
     9    4   25 1
    10    5    6 1
    11    5   32 1
    12    5   33 1
    13    6    7 1
    14    6   34 1
    15    6   35 1
    16    7   12 1
    17    7    8 1
    18    7   36 1
    19    8    9 1
    20    8   24 1
    21    9   10 1
    22    9   37 1
    23    9   38 1
    24   10   11 1
    25   10   39 1
    26   10   40 1
    27   11   22 1
    28   11   12 1
    29   11   41 1
    30   12   13 1
    31   12   42 1
    32   13   14 1
    33   13   43 1
    34   13   44 1
    35   14   15 2
    36   14   16 1
    37   15   45 1
    38   15   46 1
    39   16   22 1
    40   16   17 2
    41   17   18 1
    42   17   47 1
    43   18   19 2
    44   18   20 1
    45   20   21 1
    46   20   48 1
    47   20   49 1
    48   21   22 1
    49   21   50 1
    50   21   51 1
    51   22   23 1
    52   23   52 1
    53   23   53 1
    54   23   54 1
    55   24   55 1
    56   24   56 1
    57   24   57 1
    58   25   26 1
    59   26   27 2
    60   26   28 1
    61   28   58 1
    62   28   59 1
    63   28   60 1
@<TRIPOS>MOLECULE
CHEMBL237683
   44    46     0     0     0
SMALL
USER_CHARGES

@<TRIPOS>ATOM
      1 C1         -0.0167    1.3781    0.0096 C.ar      1 <0>        -0.1140
      2 C2          1.1709    2.0855    0.0021 C.ar      1 <0>        -0.1192
      3 C3          2.3773    1.4107   -0.0130 C.ar      1 <0>        -0.1022
      4 C4          2.3960    0.0285   -0.0201 C.ar      1 <0>        -0.1108
      5 C5          1.2084   -0.6789   -0.0117 C.ar      1 <0>        -0.1066
      6 C6          0.0021   -0.0041    0.0020 C.ar      1 <0>        -0.1190
      7 C7          3.7112   -0.7071   -0.0376 C.3       1 <0>         0.1587
      8 N1          4.1518   -0.9524    1.3379 N.pl3     1 <0>        -0.6094
      9 C8          3.7528   -2.1823    2.0266 C.3       1 <0>         0.0859
     10 C9          4.7957   -3.2720    1.7698 C.3       1 <0>         0.4193
     11 F1          6.0393   -2.8501    2.2519 F         1 <0>        -0.1628
     12 F2          4.4146   -4.4465    2.4275 F         1 <0>        -0.1854
     13 F3          4.8866   -3.5157    0.3952 F         1 <0>        -0.1846
     14 C10         4.9521   -0.0139    1.9925 C.2       1 <0>         0.2161
     15 C11         5.3588   -0.2385    3.2434 C.2       1 <0>        -0.2790
     16 C12         6.2436    0.7532    3.9483 C.3       1 <0>         0.0059
     17 C13         5.9337    2.1714    3.4982 C.3       1 <0>         0.1769
     18 C14         5.8229    2.2493    2.0006 C.2       1 <0>        -0.1413
     19 C15         5.3546    1.2242    1.3009 C.2       1 <0>        -0.1168
     20 N2          6.9499    3.1087    3.9707 N.am      1 <0>        -0.7161
     21 C16         8.2442    2.7449    4.0350 C.2       1 <0>         0.5558
     22 O1          9.0954    3.5643    4.3228 O.2       1 <0>        -0.5168
     23 C17         8.6244    1.3515    3.7551 C.2       1 <0>        -0.1221
     24 C18         7.6871    0.4116    3.7006 C.2       1 <0>        -0.1387
     25 C19         8.0742   -1.0108    3.3877 C.3       1 <0>         0.5008
     26 F4          9.4580   -1.0864    3.1970 F         1 <0>        -0.1796
     27 F5          7.7042   -1.8398    4.4522 F         1 <0>        -0.1718
     28 F6          7.4195   -1.4269    2.2234 F         1 <0>        -0.1508
     29 H1         -0.9591    1.9053    0.0259 H         1 <0>         0.1223
     30 H2          1.1563    3.1654    0.0076 H         1 <0>         0.1225
     31 H3          3.3051    1.9634   -0.0196 H         1 <0>         0.1210
     32 H4          1.2231   -1.7588   -0.0176 H         1 <0>         0.1197
     33 H5         -0.9258   -0.5567    0.0082 H         1 <0>         0.1230
     34 H6          3.5884   -1.6586   -0.5549 H         1 <0>         0.0912
     35 H7          4.4573   -0.1052   -0.5563 H         1 <0>         0.0905
     36 H8          3.6819   -1.9924    3.0976 H         1 <0>         0.1224
     37 H9          2.7838   -2.5110    1.6510 H         1 <0>         0.1189
     38 H10         5.0502   -1.1388    3.7538 H         1 <0>         0.1271
     39 H11         6.0502    0.6930    5.0193 H         1 <0>         0.1132
     40 H12         4.9776    2.4679    3.9294 H         1 <0>         0.1159
     41 H13         6.1317    3.1484    1.4882 H         1 <0>         0.1328
     42 H14         5.2644    1.2972    0.2271 H         1 <0>         0.1308
     43 H15         6.6890    4.0031    4.2407 H         1 <0>         0.4135
     44 H16         9.6608    1.0940    3.5942 H         1 <0>         0.1624
@<TRIPOS>BOND
     1    1    6 ar
     2    1    2 ar
     3    1   29 1
     4    2    3 ar
     5    2   30 1
     6    3    4 ar
     7    3   31 1
     8    4    5 ar
     9    4    7 1
    10    5    6 ar
    11    5   32 1
    12    6   33 1
    13    7    8 1
    14    7   34 1
    15    7   35 1
    16    8    9 1
    17    8   14 1
    18    9   10 1
    19    9   36 1
    20    9   37 1
    21   10   11 1
    22   10   12 1
    23   10   13 1
    24   14   19 1
    25   14   15 2
    26   15   16 1
    27   15   38 1
    28   16   24 1
    29   16   17 1
    30   16   39 1
    31   17   18 1
    32   17   20 1
    33   17   40 1
    34   18   19 2
    35   18   41 1
    36   19   42 1
    37   20   21 am
    38   20   43 1
    39   21   22 2
    40   21   23 1
    41   23   24 2
    42   23   44 1
    43   24   25 1
    44   25   26 1
    45   25   27 1
    46   25   28 1
@<TRIPOS>MOLECULE
CHEMBL237683__1
   45    47     0     0     0
SMALL
USER_CHARGES

@<TRIPOS>ATOM
      1 C1          0.0937    1.4202   -0.2350 C.ar      1 <0>        -0.0846
      2 C2          1.2572    2.1440   -0.0523 C.ar      1 <0>        -0.1110
      3 C3          2.4746    1.4919    0.0073 C.ar      1 <0>        -0.1008
      4 C4          2.5285    0.1161   -0.1155 C.ar      1 <0>        -0.1515
      5 C5          1.3649   -0.6077   -0.2974 C.ar      1 <0>        -0.0930
      6 C6          0.1476    0.0444   -0.3583 C.ar      1 <0>        -0.1127
      7 C7          3.8558   -0.5947   -0.0516 C.3       1 <0>         0.0817
      8 N1          4.1518   -0.9524    1.3379 N.pl3     1 <0>        -0.4190
      9 C8          4.3573    0.0991    2.3371 C.3       1 <0>        -0.0061
     10 C9          5.6316    0.8774    2.0038 C.3       1 <0>         0.4522
     11 F1          5.5063    1.4565    0.7365 F         1 <0>        -0.1653
     12 F2          5.8278    1.8815    2.9580 F         1 <0>        -0.1465
     13 F3          6.7260    0.0059    2.0122 F         1 <0>        -0.1663
     14 C10         4.2319   -2.1985    1.6830 C.2       1 <0>         0.3672
     15 C11         4.6857   -2.6000    3.0711 C.3       1 <0>        -0.1408
     16 C12         5.6435   -3.7886    2.9180 C.3       1 <0>        -0.0538
     17 C13         4.9183   -4.9504    2.2565 C.3       1 <0>         0.1470
     18 C14         4.2057   -4.5302    1.0081 C.2       1 <0>         0.0149
     19 C15         3.8789   -3.2746    0.7412 C.2       1 <0>        -0.2028
     20 N2          3.9828   -5.5810    3.1852 N.am      1 <0>        -0.7183
     21 C16         4.2890   -5.7008    4.4907 C.2       1 <0>         0.5497
     22 O1          3.5557   -6.3225    5.2356 O.2       1 <0>        -0.4795
     23 C17         5.5150   -5.0765    5.0120 C.2       1 <0>        -0.0680
     24 C18         6.1654   -4.1844    4.2723 C.2       1 <0>        -0.1779
     25 C19         7.4363   -3.5650    4.7940 C.3       1 <0>         0.5057
     26 F4          7.7211   -4.0826    6.0621 F         1 <0>        -0.1622
     27 F5          8.4905   -3.8594    3.9226 F         1 <0>        -0.1642
     28 F6          7.2773   -2.1778    4.8815 F         1 <0>        -0.1735
     29 H1         -0.8579    1.9292   -0.2771 H         1 <0>         0.1366
     30 H2          1.2150    3.2189    0.0436 H         1 <0>         0.1372
     31 H3          3.3837    2.0574    0.1493 H         1 <0>         0.1309
     32 H4          1.4071   -1.6826   -0.3936 H         1 <0>         0.1264
     33 H5         -0.7614   -0.5210   -0.5008 H         1 <0>         0.1361
     34 H6          3.8133   -1.4991   -0.6584 H         1 <0>         0.1390
     35 H7          4.6382    0.0618   -0.4323 H         1 <0>         0.1446
     36 H8          3.5046    0.7781    2.3306 H         1 <0>         0.1741
     37 H9          4.4549   -0.3522    3.3245 H         1 <0>         0.1675
     38 H10         5.2030   -1.7668    3.5468 H         1 <0>         0.1270
     39 H11         6.4795   -3.4963    2.2826 H         1 <0>         0.1330
     40 H12         5.6611   -5.7002    1.9842 H         1 <0>         0.1249
     41 H13         3.9398   -5.2915    0.2896 H         1 <0>         0.1748
     42 H14         3.3554   -3.0375   -0.1732 H         1 <0>         0.1756
     43 H15         3.1336   -5.9166    2.8580 H         1 <0>         0.4201
     44 H16         5.8846   -5.3419    5.9914 H         1 <0>         0.1791
     45 H17         3.8246   -2.8935    3.6715 H         1 <0>         0.1522
@<TRIPOS>BOND
     1    1    6 ar
     2    1    2 ar
     3    1   29 1
     4    2    3 ar
     5    2   30 1
     6    3    4 ar
     7    3   31 1
     8    4    5 ar
     9    4    7 1
    10    5    6 ar
    11    5   32 1
    12    6   33 1
    13    7    8 1
    14    7   34 1
    15    7   35 1
    16    8    9 1
    17    8   14 2
    18    9   10 1
    19    9   36 1
    20    9   37 1
    21   10   11 1
    22   10   12 1
    23   10   13 1
    24   14   19 1
    25   14   15 1
    26   15   16 1
    27   15   38 1
    28   15   45 1
    29   16   24 1
    30   16   17 1
    31   16   39 1
    32   17   18 1
    33   17   20 1
    34   17   40 1
    35   18   19 2
    36   18   41 1
    37   19   42 1
    38   20   21 am
    39   20   43 1
    40   21   22 2
    41   21   23 1
    42   23   24 2
    43   23   44 1
    44   24   25 1
    45   25   26 1
    46   25   27 1
    47   25   28 1
@<TRIPOS>MOLECULE
CHEMBL237683__2
   44    46     0     0     0
SMALL
USER_CHARGES

@<TRIPOS>ATOM
      1 C1         -0.5169    0.5706    0.8713 C.ar      1 <0>        -0.1136
      2 C2          0.4773    1.5246    0.7608 C.ar      1 <0>        -0.1183
      3 C3          1.7792    1.1392    0.5011 C.ar      1 <0>        -0.1034
      4 C4          2.0869   -0.2002    0.3524 C.ar      1 <0>        -0.1120
      5 C5          1.0928   -1.1543    0.4638 C.ar      1 <0>        -0.1074
      6 C6         -0.2093   -0.7688    0.7221 C.ar      1 <0>        -0.1181
      7 C7          3.5061   -0.6203    0.0683 C.3       1 <0>         0.1583
      8 N1          4.2105   -0.8473    1.3325 N.pl3     1 <0>        -0.6107
      9 C8          4.1408   -2.1572    1.9850 C.3       1 <0>         0.0846
     10 C9          5.2869   -3.0382    1.4836 C.3       1 <0>         0.4279
     11 F1          6.5097   -2.4304    1.7875 F         1 <0>        -0.1731
     12 F2          5.2203   -4.2891    2.1067 F         1 <0>        -0.1822
     13 F3          5.1784   -3.2009    0.0984 F         1 <0>        -0.1839
     14 C10         4.9484    0.1848    1.9157 C.2       1 <0>         0.1970
     15 C11         5.4975    0.0189    3.1302 C.2       1 <0>        -0.2660
     16 C12         6.2942    1.1534    3.7105 C.3       1 <0>        -0.0020
     17 C13         7.1015    1.8141    2.5892 C.3       1 <0>         0.1694
     18 C14         6.1595    2.2549    1.5054 C.2       1 <0>        -0.1274
     19 C15         5.1341    1.4624    1.1973 C.2       1 <0>        -0.1151
     20 N2          7.8741    2.9208    3.1443 N.am      1 <0>        -0.7171
     21 C16         8.4265    2.7709    4.3719 C.2       1 <0>         0.5545
     22 O1          9.0439    3.6865    4.8814 O.2       1 <0>        -0.5122
     23 C17         8.2745    1.4896    5.0865 C.2       1 <0>        -0.1101
     24 C18         7.2415    0.6939    4.7836 C.2       1 <0>        -0.1482
     25 C19         7.0347   -0.6184    5.4950 C.3       1 <0>         0.5074
     26 F4          8.0506   -0.8022    6.4391 F         1 <0>        -0.1731
     27 F5          5.7939   -0.6081    6.1411 F         1 <0>        -0.1699
     28 F6          7.0676   -1.6631    4.5651 F         1 <0>        -0.1634
     29 H1         -1.5333    0.8714    1.0787 H         1 <0>         0.1228
     30 H2          0.2369    2.5711    0.8770 H         1 <0>         0.1231
     31 H3          2.5559    1.8846    0.4141 H         1 <0>         0.1198
     32 H4          1.3332   -2.2007    0.3472 H         1 <0>         0.1202
     33 H5         -0.9860   -1.5142    0.8087 H         1 <0>         0.1235
     34 H6          3.5025   -1.5404   -0.5160 H         1 <0>         0.0907
     35 H7          4.0118    0.1650   -0.4936 H         1 <0>         0.0928
     36 H8          4.2253   -2.0305    3.0643 H         1 <0>         0.1215
     37 H9          3.1881   -2.6308    1.7482 H         1 <0>         0.1206
     38 H10         5.3702   -0.9049    3.6749 H         1 <0>         0.1310
     39 H11         5.6122    1.8946    4.1271 H         1 <0>         0.1090
     40 H12         7.7968    1.0828    2.1770 H         1 <0>         0.0954
     41 H13         6.3123    3.1896    0.9864 H         1 <0>         0.1425
     42 H14         4.4379    1.7561    0.4256 H         1 <0>         0.1347
     43 H15         7.9892    3.7449    2.6457 H         1 <0>         0.4135
     44 H16         8.9868    1.1974    5.8440 H         1 <0>         0.1670
@<TRIPOS>BOND
     1    1    6 ar
     2    1    2 ar
     3    1   29 1
     4    2    3 ar
     5    2   30 1
     6    3    4 ar
     7    3   31 1
     8    4    5 ar
     9    4    7 1
    10    5    6 ar
    11    5   32 1
    12    6   33 1
    13    7    8 1
    14    7   34 1
    15    7   35 1
    16    8    9 1
    17    8   14 1
    18    9   10 1
    19    9   36 1
    20    9   37 1
    21   10   11 1
    22   10   12 1
    23   10   13 1
    24   14   19 1
    25   14   15 2
    26   15   16 1
    27   15   38 1
    28   16   24 1
    29   16   17 1
    30   16   39 1
    31   17   18 1
    32   17   20 1
    33   17   40 1
    34   18   19 2
    35   18   41 1
    36   19   42 1
    37   20   21 am
    38   20   43 1
    39   21   22 2
    40   21   23 1
    41   23   24 2
    42   23   44 1
    43   24   25 1
    44   25   26 1
    45   25   27 1
    46   25   28 1
@<TRIPOS>MOLECULE
CHEMBL237683__3
   45    47     0     0     0
SMALL
USER_CHARGES

@<TRIPOS>ATOM
      1 C1          0.1046    1.4358   -0.2396 C.ar      1 <0>        -0.0850
      2 C2          1.2717    2.1543   -0.0595 C.ar      1 <0>        -0.1112
      3 C3          2.4860    1.4964    0.0013 C.ar      1 <0>        -0.1011
      4 C4          2.5330    0.1200   -0.1177 C.ar      1 <0>        -0.1508
      5 C5          1.3658   -0.5986   -0.2969 C.ar      1 <0>        -0.0928
      6 C6          0.1517    0.0594   -0.3591 C.ar      1 <0>        -0.1128
      7 C7          3.8569   -0.5971   -0.0524 C.3       1 <0>         0.0820
      8 N1          4.1518   -0.9524    1.3379 N.pl3     1 <0>        -0.4229
      9 C8          4.3581    0.1008    2.3351 C.3       1 <0>        -0.0047
     10 C9          5.6326    0.8780    1.9999 C.3       1 <0>         0.4515
     11 F1          5.5071    1.4548    0.7316 F         1 <0>        -0.1653
     12 F2          5.8296    1.8837    2.9522 F         1 <0>        -0.1468
     13 F3          6.7266    0.0061    2.0094 F         1 <0>        -0.1668
     14 C10         4.2302   -2.1979    1.6855 C.2       1 <0>         0.3683
     15 C11         4.6835   -2.5889    3.0799 C.3       1 <0>        -0.1444
     16 C12         5.5628   -3.8320    2.9232 C.3       1 <0>        -0.0533
     17 C13         4.7164   -4.9586    2.3323 C.3       1 <0>         0.1422
     18 C14         4.1122   -4.5436    1.0293 C.2       1 <0>         0.0300
     19 C15         3.8759   -3.2688    0.7396 C.2       1 <0>        -0.2181
     20 N2          5.5262   -6.1675    2.2166 N.am      1 <0>        -0.7198
     21 C16         6.4251   -6.4440    3.1903 C.2       1 <0>         0.5502
     22 O1          7.1415   -7.4229    3.1025 O.2       1 <0>        -0.4769
     23 C17         6.5290   -5.5501    4.3586 C.2       1 <0>        -0.0646
     24 C18         6.1224   -4.2809    4.2455 C.2       1 <0>        -0.1851
     25 C19         6.2224   -3.3281    5.4088 C.3       1 <0>         0.5079
     26 F4          6.7730   -3.9926    6.5099 F         1 <0>        -0.1590
     27 F5          7.0406   -2.2488    5.0585 F         1 <0>        -0.1679
     28 F6          4.9463   -2.8584    5.7379 F         1 <0>        -0.1720
     29 H1         -0.8445    1.9494   -0.2826 H         1 <0>         0.1363
     30 H2          1.2350    3.2297    0.0335 H         1 <0>         0.1369
     31 H3          3.3979    2.0578    0.1413 H         1 <0>         0.1308
     32 H4          1.4026   -1.6739   -0.3902 H         1 <0>         0.1269
     33 H5         -0.7602   -0.5019   -0.4995 H         1 <0>         0.1359
     34 H6          3.8095   -1.5030   -0.6567 H         1 <0>         0.1388
     35 H7          4.6423    0.0545   -0.4354 H         1 <0>         0.1435
     36 H8          3.5057    0.7802    2.3277 H         1 <0>         0.1743
     37 H9          4.4559   -0.3486    3.3233 H         1 <0>         0.1665
     38 H10         5.2597   -1.7783    3.5259 H         1 <0>         0.1263
     39 H11         6.3832   -3.6103    2.2406 H         1 <0>         0.1289
     40 H12         3.9056   -5.1727    3.0286 H         1 <0>         0.1273
     41 H13         3.8562   -5.3022    0.3045 H         1 <0>         0.1751
     42 H14         3.4208   -3.0135   -0.2060 H         1 <0>         0.1750
     43 H15         5.4221   -6.7614    1.4568 H         1 <0>         0.4231
     44 H16         6.9282   -5.9155    5.2932 H         1 <0>         0.1802
     45 H17         3.8189   -2.8197    3.7022 H         1 <0>         0.1634
@<TRIPOS>BOND
     1    1    6 ar
     2    1    2 ar
     3    1   29 1
     4    2    3 ar
     5    2   30 1
     6    3    4 ar
     7    3   31 1
     8    4    5 ar
     9    4    7 1
    10    5    6 ar
    11    5   32 1
    12    6   33 1
    13    7    8 1
    14    7   34 1
    15    7   35 1
    16    8    9 1
    17    8   14 2
    18    9   10 1
    19    9   36 1
    20    9   37 1
    21   10   11 1
    22   10   12 1
    23   10   13 1
    24   14   19 1
    25   14   15 1
    26   15   16 1
    27   15   38 1
    28   15   45 1
    29   16   24 1
    30   16   17 1
    31   16   39 1
    32   17   18 1
    33   17   20 1
    34   17   40 1
    35   18   19 2
    36   18   41 1
    37   19   42 1
    38   20   21 am
    39   20   43 1
    40   21   22 2
    41   21   23 1
    42   23   24 2
    43   23   44 1
    44   24   25 1
    45   25   26 1
    46   25   27 1
    47   25   28 1
@<TRIPOS>MOLECULE
CHEMBL237683__4
   44    46     0     0     0
SMALL
USER_CHARGES

@<TRIPOS>ATOM
      1 C1         -0.0167    1.3781    0.0096 C.ar      1 <0>        -0.1137
      2 C2          1.1709    2.0855    0.0021 C.ar      1 <0>        -0.1193
      3 C3          2.3773    1.4107   -0.0130 C.ar      1 <0>        -0.1017
      4 C4          2.3960    0.0285   -0.0201 C.ar      1 <0>        -0.1114
      5 C5          1.2084   -0.6789   -0.0117 C.ar      1 <0>        -0.1067
      6 C6          0.0021   -0.0041    0.0020 C.ar      1 <0>        -0.1188
      7 C7          3.7112   -0.7071   -0.0376 C.3       1 <0>         0.1592
      8 N1          4.1518   -0.9524    1.3379 N.pl3     1 <0>        -0.6101
      9 C8          3.7528   -2.1823    2.0266 C.3       1 <0>         0.0845
     10 C9          4.7957   -3.2720    1.7698 C.3       1 <0>         0.4269
     11 F1          6.0393   -2.8501    2.2519 F         1 <0>        -0.1747
     12 F2          4.4146   -4.4465    2.4275 F         1 <0>        -0.1820
     13 F3          4.8866   -3.5157    0.3952 F         1 <0>        -0.1833
     14 C10         4.9521   -0.0139    1.9925 C.2       1 <0>         0.1955
     15 C11         5.3626   -0.2380    3.2515 C.2       1 <0>        -0.2664
     16 C12         6.2118    0.8071    3.9185 C.3       1 <0>        -0.0030
     17 C13         5.6967    2.1922    3.5165 C.3       1 <0>         0.1714
     18 C14         5.7061    2.2994    2.0182 C.2       1 <0>        -0.1311
     19 C15         5.3567    1.2277    1.3013 C.2       1 <0>        -0.1107
     20 N2          6.5204    3.2131    4.1564 N.am      1 <0>        -0.7171
     21 C16         6.9488    2.9966    5.4230 C.2       1 <0>         0.5545
     22 O1          7.6693    3.8077    5.9726 O.2       1 <0>        -0.5119
     23 C17         6.5358    1.7704    6.1310 C.2       1 <0>        -0.1098
     24 C18         6.1810    0.6949    5.4173 C.2       1 <0>        -0.1482
     25 C19         5.7640   -0.5856    6.0938 C.3       1 <0>         0.5085
     26 F4          5.8236   -0.4205    7.4817 F         1 <0>        -0.1728
     27 F5          4.4552   -0.9067    5.7181 F         1 <0>        -0.1686
     28 F6          6.6262   -1.6182    5.7095 F         1 <0>        -0.1667
     29 H1         -0.9591    1.9053    0.0259 H         1 <0>         0.1223
     30 H2          1.1563    3.1654    0.0076 H         1 <0>         0.1225
     31 H3          3.3051    1.9634   -0.0196 H         1 <0>         0.1209
     32 H4          1.2231   -1.7588   -0.0176 H         1 <0>         0.1197
     33 H5         -0.9258   -0.5567    0.0082 H         1 <0>         0.1231
     34 H6          3.5884   -1.6586   -0.5549 H         1 <0>         0.0912
     35 H7          4.4573   -0.1052   -0.5563 H         1 <0>         0.0909
     36 H8          3.6819   -1.9924    3.0976 H         1 <0>         0.1226
     37 H9          2.7838   -2.5110    1.6510 H         1 <0>         0.1213
     38 H10         5.0893   -1.1448    3.7707 H         1 <0>         0.1310
     39 H11         7.2406    0.7080    3.5723 H         1 <0>         0.1097
     40 H12         4.6726    2.3047    3.8723 H         1 <0>         0.0939
     41 H13         5.9922    3.2201    1.5315 H         1 <0>         0.1419
     42 H14         5.3661    1.2686    0.2221 H         1 <0>         0.1358
     43 H15         6.7558    4.0277    3.6853 H         1 <0>         0.4135
     44 H16         6.5197    1.7407    7.2105 H         1 <0>         0.1671
@<TRIPOS>BOND
     1    1    6 ar
     2    1    2 ar
     3    1   29 1
     4    2    3 ar
     5    2   30 1
     6    3    4 ar
     7    3   31 1
     8    4    5 ar
     9    4    7 1
    10    5    6 ar
    11    5   32 1
    12    6   33 1
    13    7    8 1
    14    7   34 1
    15    7   35 1
    16    8    9 1
    17    8   14 1
    18    9   10 1
    19    9   36 1
    20    9   37 1
    21   10   11 1
    22   10   12 1
    23   10   13 1
    24   14   19 1
    25   14   15 2
    26   15   16 1
    27   15   38 1
    28   16   24 1
    29   16   17 1
    30   16   39 1
    31   17   18 1
    32   17   20 1
    33   17   40 1
    34   18   19 2
    35   18   41 1
    36   19   42 1
    37   20   21 am
    38   20   43 1
    39   21   22 2
    40   21   23 1
    41   23   24 2
    42   23   44 1
    43   24   25 1
    44   25   26 1
    45   25   27 1
    46   25   28 1
@<TRIPOS>MOLECULE
CHEMBL237683__5
   45    47     0     0     0
SMALL
USER_CHARGES

@<TRIPOS>ATOM
      1 C1          6.6355    0.7699   -2.5911 C.ar      1 <0>        -0.0851
      2 C2          6.4222   -0.5917   -2.4850 C.ar      1 <0>        -0.1128
      3 C3          5.4361   -1.0734   -1.6444 C.ar      1 <0>        -0.0932
      4 C4          4.6637   -0.1935   -0.9096 C.ar      1 <0>        -0.1505
      5 C5          4.8777    1.1681   -1.0150 C.ar      1 <0>        -0.1005
      6 C6          5.8628    1.6499   -1.8566 C.ar      1 <0>        -0.1110
      7 C7          3.5881   -0.7186    0.0061 C.3       1 <0>         0.0814
      8 N1          4.1518   -0.9524    1.3379 N.pl3     1 <0>        -0.4229
      9 C8          4.6292    0.1769    2.1398 C.3       1 <0>        -0.0045
     10 C9          3.4452    1.0672    2.5225 C.3       1 <0>         0.4514
     11 F1          2.5236    0.3231    3.2670 F         1 <0>        -0.1668
     12 F2          3.9011    2.1456    3.2883 F         1 <0>        -0.1468
     13 F3          2.8284    1.5470    1.3622 F         1 <0>        -0.1652
     14 C10         4.2282   -2.1577    1.8065 C.2       1 <0>         0.3687
     15 C11         4.6522   -2.4086    3.2417 C.3       1 <0>        -0.1445
     16 C12         3.7847   -3.5578    3.7613 C.3       1 <0>        -0.0532
     17 C13         4.0710   -4.8038    2.9244 C.3       1 <0>         0.1421
     18 C14         3.8239   -4.5395    1.4739 C.2       1 <0>         0.0299
     19 C15         3.8999   -3.3178    0.9615 C.2       1 <0>        -0.2180
     20 N2          3.2855   -5.9239    3.4334 N.am      1 <0>        -0.7198
     21 C16         3.1088   -6.0402    4.7705 C.2       1 <0>         0.5503
     22 O1          2.4269   -6.9402    5.2222 O.2       1 <0>        -0.4769
     23 C17         3.7494   -5.0678    5.6755 C.2       1 <0>        -0.0646
     24 C18         4.0775   -3.8592    5.2057 C.2       1 <0>        -0.1851
     25 C19         4.7223   -2.8296    6.0974 C.3       1 <0>         0.5079
     26 F4          4.8827   -3.3600    7.3820 F         1 <0>        -0.1590
     27 F5          5.9733   -2.4803    5.5776 F         1 <0>        -0.1720
     28 F6          3.9096   -1.6927    6.1605 F         1 <0>        -0.1679
     29 H1          7.4089    1.1461   -3.2444 H         1 <0>         0.1363
     30 H2          7.0257   -1.2792   -3.0591 H         1 <0>         0.1359
     31 H3          5.2690   -2.1372   -1.5621 H         1 <0>         0.1267
     32 H4          4.2740    1.8556   -0.4411 H         1 <0>         0.1303
     33 H5          6.0297    2.7137   -1.9393 H         1 <0>         0.1369
     34 H6          2.7819    0.0117    0.0758 H         1 <0>         0.1441
     35 H7          3.1969   -1.6547   -0.3924 H         1 <0>         0.1387
     36 H8          5.1098   -0.1970    3.0439 H         1 <0>         0.1665
     37 H9          5.3472    0.7566    1.5598 H         1 <0>         0.1743
     38 H10         5.7045   -2.6907    3.2759 H         1 <0>         0.1632
     39 H11         2.7327   -3.2932    3.6537 H         1 <0>         0.1289
     40 H12         5.1235   -5.0589    3.0477 H         1 <0>         0.1270
     41 H13         3.5716   -5.3657    0.8257 H         1 <0>         0.1752
     42 H14         3.7223   -3.1731   -0.0939 H         1 <0>         0.1746
     43 H15         2.8973   -6.5723    2.8252 H         1 <0>         0.4231
     44 H16         3.9507   -5.3281    6.7041 H         1 <0>         0.1801
     45 H17         4.4849   -1.5142    3.8419 H         1 <0>         0.1265
@<TRIPOS>BOND
     1    1    6 ar
     2    1    2 ar
     3    1   29 1
     4    2    3 ar
     5    2   30 1
     6    3    4 ar
     7    3   31 1
     8    4    5 ar
     9    4    7 1
    10    5    6 ar
    11    5   32 1
    12    6   33 1
    13    7    8 1
    14    7   34 1
    15    7   35 1
    16    8    9 1
    17    8   14 2
    18    9   10 1
    19    9   36 1
    20    9   37 1
    21   10   11 1
    22   10   12 1
    23   10   13 1
    24   14   19 1
    25   14   15 1
    26   15   16 1
    27   15   38 1
    28   15   45 1
    29   16   24 1
    30   16   17 1
    31   16   39 1
    32   17   18 1
    33   17   20 1
    34   17   40 1
    35   18   19 2
    36   18   41 1
    37   19   42 1
    38   20   21 am
    39   20   43 1
    40   21   22 2
    41   21   23 1
    42   23   24 2
    43   23   44 1
    44   24   25 1
    45   25   26 1
    46   25   27 1
    47   25   28 1
@<TRIPOS>MOLECULE
CHEMBL237683__6
   44    46     0     0     0
SMALL
USER_CHARGES

@<TRIPOS>ATOM
      1 C1         -0.5036    0.5999    0.8275 C.ar      1 <0>        -0.1131
      2 C2          0.4977    1.5464    0.7156 C.ar      1 <0>        -0.1177
      3 C3          1.7987    1.1502    0.4680 C.ar      1 <0>        -0.1004
      4 C4          2.0985   -0.1924    0.3327 C.ar      1 <0>        -0.1113
      5 C5          1.0974   -1.1389    0.4455 C.ar      1 <0>        -0.1070
      6 C6         -0.2038   -0.7427    0.6917 C.ar      1 <0>        -0.1187
      7 C7          3.5167   -0.6242    0.0617 C.3       1 <0>         0.1583
      8 N1          4.2105   -0.8473    1.3325 N.pl3     1 <0>        -0.6098
      9 C8          4.1302   -2.1533    1.9915 C.3       1 <0>         0.0845
     10 C9          5.2762   -3.0420    1.5038 C.3       1 <0>         0.4288
     11 F1          6.4993   -2.4377    1.8137 F         1 <0>        -0.1766
     12 F2          5.1994   -4.2891    2.1331 F         1 <0>        -0.1824
     13 F3          5.1776   -3.2117    0.1187 F         1 <0>        -0.1832
     14 C10         4.9484    0.1848    1.9157 C.2       1 <0>         0.2171
     15 C11         5.4931    0.0180    3.1224 C.2       1 <0>        -0.2778
     16 C12         6.2675    1.1327    3.7713 C.3       1 <0>         0.0057
     17 C13         6.9868    1.9715    2.7278 C.3       1 <0>         0.1757
     18 C14         6.0719    2.3079    1.5828 C.2       1 <0>        -0.1387
     19 C15         5.1324    1.4587    1.1970 C.2       1 <0>        -0.1198
     20 N2          7.5209    3.1985    3.3140 N.am      1 <0>        -0.7155
     21 C16         6.8460    3.8499    4.2793 C.2       1 <0>         0.5554
     22 O1          7.2429    4.9265    4.6821 O.2       1 <0>        -0.5165
     23 C17         5.6256    3.2536    4.8447 C.2       1 <0>        -0.1196
     24 C18         5.3408    1.9796    4.5995 C.2       1 <0>        -0.1401
     25 C19         4.0772    1.3767    5.1570 C.3       1 <0>         0.5040
     26 F4          3.3810    2.3457    5.8875 F         1 <0>        -0.1775
     27 F5          3.2752    0.9198    4.1057 F         1 <0>        -0.1614
     28 F6          4.4022    0.3049    5.9953 F         1 <0>        -0.1729
     29 H1         -1.5192    0.9091    1.0255 H         1 <0>         0.1223
     30 H2          0.2635    2.5953    0.8213 H         1 <0>         0.1223
     31 H3          2.5809    1.8898    0.3798 H         1 <0>         0.1186
     32 H4          1.3316   -2.1879    0.3394 H         1 <0>         0.1195
     33 H5         -0.9860   -1.4822    0.7795 H         1 <0>         0.1229
     34 H6          3.5110   -1.5483   -0.5163 H         1 <0>         0.0904
     35 H7          4.0319    0.1537   -0.5019 H         1 <0>         0.0923
     36 H8          4.2070   -2.0210    3.0707 H         1 <0>         0.1231
     37 H9          3.1772   -2.6241    1.7501 H         1 <0>         0.1206
     38 H10         5.3769   -0.9242    3.6373 H         1 <0>         0.1268
     39 H11         7.0213    0.6973    4.4273 H         1 <0>         0.1139
     40 H12         7.8249    1.3929    2.3394 H         1 <0>         0.1176
     41 H13         6.1854    3.2502    1.0675 H         1 <0>         0.1334
     42 H14         4.4980    1.7020    0.3575 H         1 <0>         0.1304
     43 H15         8.3714    3.5474    3.0045 H         1 <0>         0.4139
     44 H16         4.9644    3.8490    5.4568 H         1 <0>         0.1625
@<TRIPOS>BOND
     1    1    6 ar
     2    1    2 ar
     3    1   29 1
     4    2    3 ar
     5    2   30 1
     6    3    4 ar
     7    3   31 1
     8    4    5 ar
     9    4    7 1
    10    5    6 ar
    11    5   32 1
    12    6   33 1
    13    7    8 1
    14    7   34 1
    15    7   35 1
    16    8    9 1
    17    8   14 1
    18    9   10 1
    19    9   36 1
    20    9   37 1
    21   10   11 1
    22   10   12 1
    23   10   13 1
    24   14   19 1
    25   14   15 2
    26   15   16 1
    27   15   38 1
    28   16   24 1
    29   16   17 1
    30   16   39 1
    31   17   18 1
    32   17   20 1
    33   17   40 1
    34   18   19 2
    35   18   41 1
    36   19   42 1
    37   20   21 am
    38   20   43 1
    39   21   22 2
    40   21   23 1
    41   23   24 2
    42   23   44 1
    43   24   25 1
    44   25   26 1
    45   25   27 1
    46   25   28 1
@<TRIPOS>MOLECULE
CHEMBL237683__7
   45    47     0     0     0
SMALL
USER_CHARGES

@<TRIPOS>ATOM
      1 C1          6.6381    0.7733   -2.5880 C.ar      1 <0>        -0.0847
      2 C2          6.4264   -0.5886   -2.4822 C.ar      1 <0>        -0.1126
      3 C3          5.4400   -1.0716   -1.6428 C.ar      1 <0>        -0.0933
      4 C4          4.6655   -0.1927   -0.9089 C.ar      1 <0>        -0.1513
      5 C5          4.8778    1.1692   -1.0140 C.ar      1 <0>        -0.1003
      6 C6          5.8633    1.6523   -1.8544 C.ar      1 <0>        -0.1109
      7 C7          3.5894   -0.7193    0.0054 C.3       1 <0>         0.0811
      8 N1          4.1518   -0.9524    1.3379 N.pl3     1 <0>        -0.4189
      9 C8          4.6275    0.1774    2.1401 C.3       1 <0>        -0.0060
     10 C9          3.4425    1.0669    2.5215 C.3       1 <0>         0.4522
     11 F1          2.5208    0.3222    3.2652 F         1 <0>        -0.1662
     12 F2          3.8968    2.1457    3.2875 F         1 <0>        -0.1464
     13 F3          2.8264    1.5460    1.3604 F         1 <0>        -0.1653
     14 C10         4.2284   -2.1575    1.8068 C.2       1 <0>         0.3677
     15 C11         4.6504   -2.4165    3.2382 C.3       1 <0>        -0.1409
     16 C12         3.7271   -3.5042    3.8022 C.3       1 <0>        -0.0538
     17 C13         3.8736   -4.7774    2.9832 C.3       1 <0>         0.1468
     18 C14         3.7438   -4.5182    1.5139 C.2       1 <0>         0.0151
     19 C15         3.9024   -3.3240    0.9686 C.2       1 <0>        -0.2031
     20 N2          5.1434   -5.4413    3.2697 N.am      1 <0>        -0.7183
     21 C16         5.6509   -5.4411    4.5166 C.2       1 <0>         0.5497
     22 O1          6.6509   -6.0856    4.7693 O.2       1 <0>        -0.4796
     23 C17         4.9905   -4.6573    5.5721 C.2       1 <0>        -0.0681
     24 C18         4.0744   -3.7524    5.2448 C.2       1 <0>        -0.1778
     25 C19         3.3784   -2.9679    6.3270 C.3       1 <0>         0.5058
     26 F4          3.8618   -3.3681    7.5774 F         1 <0>        -0.1622
     27 F5          3.6263   -1.6030    6.1463 F         1 <0>        -0.1734
     28 F6          2.0011   -3.2044    6.2620 F         1 <0>        -0.1641
     29 H1          7.4117    1.1505   -3.2403 H         1 <0>         0.1366
     30 H2          7.0315   -1.2753   -3.0556 H         1 <0>         0.1361
     31 H3          5.2741   -2.1357   -1.5607 H         1 <0>         0.1263
     32 H4          4.2725    1.8558   -0.4409 H         1 <0>         0.1305
     33 H5          6.0289    2.7163   -1.9368 H         1 <0>         0.1372
     34 H6          2.7822    0.0099    0.0742 H         1 <0>         0.1452
     35 H7          3.1999   -1.6559   -0.3936 H         1 <0>         0.1389
     36 H8          5.1075   -0.1959    3.0447 H         1 <0>         0.1675
     37 H9          5.3457    0.7576    1.5607 H         1 <0>         0.1741
     38 H10         5.6847   -2.7597    3.2629 H         1 <0>         0.1521
     39 H11         2.6927   -3.1671    3.7350 H         1 <0>         0.1330
     40 H12         3.0763   -5.4603    3.2765 H         1 <0>         0.1251
     41 H13         3.5039   -5.3490    0.8669 H         1 <0>         0.1749
     42 H14         3.7962   -3.2047   -0.0995 H         1 <0>         0.1751
     43 H15         5.6252   -5.8859    2.5548 H         1 <0>         0.4201
     44 H16         5.2491   -4.8169    6.6085 H         1 <0>         0.1791
     45 H17         4.5484   -1.5037    3.8250 H         1 <0>         0.1272
@<TRIPOS>BOND
     1    1    6 ar
     2    1    2 ar
     3    1   29 1
     4    2    3 ar
     5    2   30 1
     6    3    4 ar
     7    3   31 1
     8    4    5 ar
     9    4    7 1
    10    5    6 ar
    11    5   32 1
    12    6   33 1
    13    7    8 1
    14    7   34 1
    15    7   35 1
    16    8    9 1
    17    8   14 2
    18    9   10 1
    19    9   36 1
    20    9   37 1
    21   10   11 1
    22   10   12 1
    23   10   13 1
    24   14   19 1
    25   14   15 1
    26   15   16 1
    27   15   38 1
    28   15   45 1
    29   16   24 1
    30   16   17 1
    31   16   39 1
    32   17   18 1
    33   17   20 1
    34   17   40 1
    35   18   19 2
    36   18   41 1
    37   19   42 1
    38   20   21 am
    39   20   43 1
    40   21   22 2
    41   21   23 1
    42   23   24 2
    43   23   44 1
    44   24   25 1
    45   25   26 1
    46   25   27 1
    47   25   28 1
@<TRIPOS>MOLECULE
CHEMBL391548
   27    28     0     0     0
SMALL
USER_CHARGES

@<TRIPOS>ATOM
      1 C1         -0.0166    1.3754    0.0096 C.ar      1 <0>        -0.1260
      2 C2          1.1695    2.0890    0.0021 C.ar      1 <0>        -0.0925
      3 C3          2.3819    1.4266   -0.0135 C.ar      1 <0>        -0.1438
      4 C4          2.4163    0.0411   -0.0213 C.ar      1 <0>         0.1261
      5 C5          1.2194   -0.6829   -0.0133 C.ar      1 <0>        -0.0906
      6 C6          0.0021   -0.0041    0.0020 C.ar      1 <0>        -0.0847
      7 C7          1.2455   -2.1645   -0.0215 C.ar      1 <0>        -0.0151
      8 C8          2.0301   -2.8429   -0.9555 C.ar      1 <0>        -0.0587
      9 C9          2.0552   -4.2186   -0.9642 C.ar      1 <0>        -0.0685
     10 C10         1.2944   -4.9369   -0.0369 C.ar      1 <0>         0.0273
     11 C11         0.5092   -4.2565    0.8978 C.ar      1 <0>        -0.1409
     12 C12         0.4902   -2.8802    0.9081 C.ar      1 <0>        -0.0608
     13 C13        -0.3114   -5.0292    1.8981 C.3       1 <0>         0.5047
     14 F1         -1.0062   -4.1360    2.7206 F         1 <0>        -0.1701
     15 F2         -1.2236   -5.8459    1.2213 F         1 <0>        -0.1705
     16 F3          0.5338   -5.8230    2.6808 F         1 <0>        -0.1707
     17 C14         1.3193   -6.3687   -0.0452 C.1       1 <0>         0.2289
     18 N1          1.3391   -7.5045   -0.0518 N.1       1 <0>        -0.3740
     19 O1          3.6074   -0.6112   -0.0371 O.3       1 <0>        -0.4935
     20 H1         -0.9602    1.9005    0.0260 H         1 <0>         0.1311
     21 H2          1.1471    3.1687    0.0081 H         1 <0>         0.1307
     22 H3          3.3039    1.9891   -0.0200 H         1 <0>         0.1338
     23 H4         -0.9254   -0.5573    0.0083 H         1 <0>         0.1319
     24 H5          2.6174   -2.2877   -1.6720 H         1 <0>         0.1503
     25 H6          2.6621   -4.7433   -1.6872 H         1 <0>         0.1500
     26 H7         -0.1127   -2.3541    1.6334 H         1 <0>         0.1514
     27 H8          3.9615   -0.8048    0.8417 H         1 <0>         0.3941
@<TRIPOS>BOND
     1    1    6 ar
     2    1    2 ar
     3    1   20 1
     4    2    3 ar
     5    2   21 1
     6    3    4 ar
     7    3   22 1
     8    4    5 ar
     9    4   19 1
    10    5    6 ar
    11    5    7 1
    12    6   23 1
    13    7   12 ar
    14    7    8 ar
    15    8    9 ar
    16    8   24 1
    17    9   10 ar
    18    9   25 1
    19   10   11 ar
    20   10   17 1
    21   11   12 ar
    22   11   13 1
    23   12   26 1
    24   13   14 1
    25   13   15 1
    26   13   16 1
    27   17   18 3
    28   19   27 1
@<TRIPOS>MOLECULE
CHEMBL726
   57    60     0     0     0
SMALL
USER_CHARGES

@<TRIPOS>ATOM
      1 C1          3.4437   -4.9771    0.0368 C.ar      1 <0>        -0.0771
      2 C2          4.3861   -4.5771    0.9651 C.ar      1 <0>        -0.1269
      3 C3          4.2792   -3.3364    1.5664 C.ar      1 <0>        -0.0516
      4 C4          3.2267   -2.4926    1.2411 C.ar      1 <0>        -0.1551
      5 C5          2.2729   -2.8934    0.3097 C.ar      1 <0>         0.1852
      6 C6          2.3926   -4.1422   -0.2915 C.ar      1 <0>        -0.1628
      7 N1          1.1945   -2.0826   -0.0347 N.pl3     1 <0>        -0.5629
      8 C7          1.1709   -0.6955    0.0853 C.ar      1 <0>         0.1857
      9 C8          0.3025    0.0332   -0.7210 C.ar      1 <0>        -0.1188
     10 C9          0.2496    1.4106   -0.6236 C.ar      1 <0>        -0.1465
     11 C10         1.0603    2.0760    0.2765 C.ar      1 <0>        -0.0780
     12 C11         1.9293    1.3621    1.0812 C.ar      1 <0>        -0.0563
     13 C12         1.9888   -0.0211    0.9875 C.ar      1 <0>        -0.1199
     14 S1          3.1095   -0.9136    2.0128 S.3       1 <0>         0.0509
     15 C13        -0.6948    2.1899   -1.5021 C.3       1 <0>         0.5116
     16 F1         -1.9265    2.3299   -0.8537 F         1 <0>        -0.1708
     17 F2         -0.1562    3.4554   -1.7584 F         1 <0>        -0.1684
     18 F3         -0.8783    1.5079   -2.7097 F         1 <0>        -0.1835
     19 C14        -0.0045   -2.7378   -0.5632 C.3       1 <0>         0.1189
     20 C15         0.1003   -2.8415   -2.0861 C.3       1 <0>        -0.1867
     21 C16        -1.1519   -3.5258   -2.6381 C.3       1 <0>        -0.0069
     22 N2         -1.0512   -3.6254   -4.1003 N.4       1 <0>        -0.3853
     23 C17        -1.0537   -2.2775   -4.6839 C.3       1 <0>        -0.0077
     24 C18        -0.9298   -2.3801   -6.2057 C.3       1 <0>         0.0276
     25 N3         -2.0555   -3.1635   -6.7342 N.3       1 <0>        -0.5292
     26 C19        -2.0806   -4.5075   -6.1400 C.3       1 <0>         0.0210
     27 C20        -2.1949   -4.3874   -4.6187 C.3       1 <0>        -0.0006
     28 C21        -2.0033   -3.2371   -8.2004 C.3       1 <0>         0.0537
     29 C22        -3.3078   -3.8378   -8.7277 C.3       1 <0>         0.0765
     30 O1         -4.3924   -2.9556   -8.4318 O.3       1 <0>        -0.5623
     31 H1          3.5314   -5.9436   -0.4370 H         1 <0>         0.1336
     32 H2          5.2052   -5.2329    1.2209 H         1 <0>         0.1378
     33 H3          5.0162   -3.0236    2.2912 H         1 <0>         0.1394
     34 H4          1.6604   -4.4608   -1.0187 H         1 <0>         0.1253
     35 H5         -0.3339   -0.4802   -1.4266 H         1 <0>         0.1363
     36 H6          1.0153    3.1525    0.3512 H         1 <0>         0.1503
     37 H7          2.5627    1.8822    1.7845 H         1 <0>         0.1518
     38 H8         -0.0908   -3.7369   -0.1361 H         1 <0>         0.1000
     39 H9         -0.8850   -2.1522   -0.2987 H         1 <0>         0.0969
     40 H10         0.1866   -1.8424   -2.5133 H         1 <0>         0.0961
     41 H11         0.9808   -3.4271   -2.3506 H         1 <0>         0.0983
     42 H12        -1.2382   -4.5248   -2.2109 H         1 <0>         0.1366
     43 H13        -2.0324   -2.9402   -2.3736 H         1 <0>         0.1359
     44 H14        -1.9853   -1.7726   -4.4284 H         1 <0>         0.1410
     45 H15        -0.2120   -1.7088   -4.2884 H         1 <0>         0.1346
     46 H16        -0.9466   -1.3806   -6.6402 H         1 <0>         0.1248
     47 H17         0.0081   -2.8727   -6.4619 H         1 <0>         0.0594
     48 H18        -2.9369   -5.0601   -6.5265 H         1 <0>         0.1240
     49 H19        -1.1616   -5.0352   -6.3950 H         1 <0>         0.0595
     50 H20        -2.1994   -5.3829   -4.1749 H         1 <0>         0.1362
     51 H21        -3.1207   -3.8717   -4.3635 H         1 <0>         0.1397
     52 H22        -1.8729   -2.2354   -8.6100 H         1 <0>         0.0976
     53 H23        -1.1655   -3.8653   -8.5031 H         1 <0>         0.0611
     54 H24        -3.2348   -3.9748   -9.8066 H         1 <0>         0.0597
     55 H25        -3.4830   -4.8019   -8.2501 H         1 <0>         0.0455
     56 H26        -5.2528   -3.2736   -8.7380 H         1 <0>         0.3848
     57 H27        -0.1938   -4.0966   -4.3468 H         1 <0>         0.4201
@<TRIPOS>BOND
     1    1    6 ar
     2    1    2 ar
     3    1   31 1
     4    2    3 ar
     5    2   32 1
     6    3    4 ar
     7    3   33 1
     8    4   14 1
     9    4    5 ar
    10    5    6 ar
    11    5    7 1
    12    6   34 1
    13    7    8 1
    14    7   19 1
    15    8   13 ar
    16    8    9 ar
    17    9   10 ar
    18    9   35 1
    19   10   11 ar
    20   10   15 1
    21   11   12 ar
    22   11   36 1
    23   12   13 ar
    24   12   37 1
    25   13   14 1
    26   15   16 1
    27   15   17 1
    28   15   18 1
    29   19   20 1
    30   19   38 1
    31   19   39 1
    32   20   21 1
    33   20   40 1
    34   20   41 1
    35   21   22 1
    36   21   42 1
    37   21   43 1
    38   22   27 1
    39   22   23 1
    40   22   57 1
    41   23   24 1
    42   23   44 1
    43   23   45 1
    44   24   25 1
    45   24   46 1
    46   24   47 1
    47   25   26 1
    48   25   28 1
    49   26   27 1
    50   26   48 1
    51   26   49 1
    52   27   50 1
    53   27   51 1
    54   28   29 1
    55   28   52 1
    56   28   53 1
    57   29   30 1
    58   29   54 1
    59   29   55 1
    60   30   56 1
@<TRIPOS>MOLECULE
CHEMBL1084843
   51    53     0     0     0
SMALL
USER_CHARGES

@<TRIPOS>ATOM
      1 C1         -0.5210    1.4714    0.0391 C.3       1 <0>        -0.1417
      2 C2         -0.2246   -0.0294    0.0147 C.3       1 <0>        -0.0675
      3 C3          0.7989   -0.3729   -1.0903 C.3       1 <0>         0.1058
      4 N1          2.1114   -0.3307   -0.4350 N.am      1 <0>        -0.6003
      5 C4          1.9914   -0.3866    0.9026 C.2       1 <0>         0.5025
      6 O1          2.9186   -0.3751    1.6843 O.2       1 <0>        -0.5088
      7 C5          0.5315   -0.4650    1.2912 C.3       1 <0>         0.0546
      8 H1          0.3181    0.2187    2.1129 H         1 <0>         0.1146
      9 O2          0.1802   -1.8033    1.6485 O.3       1 <0>        -0.2734
     10 C6          0.3323   -2.1536    2.9512 C.ar      1 <0>         0.1532
     11 C7          0.9138   -1.2622    3.8451 C.ar      1 <0>        -0.1644
     12 C8          1.0696   -1.6133    5.1675 C.ar      1 <0>        -0.0256
     13 C9          0.6418   -2.8681    5.6105 C.ar      1 <0>        -0.0115
     14 C10         0.0576   -3.7612    4.7084 C.ar      1 <0>        -0.1037
     15 C11        -0.0992   -3.3999    3.3884 C.ar      1 <0>        -0.0987
     16 C12        -0.4049   -5.1157    5.1801 C.3       1 <0>         0.5069
     17 F1         -0.9509   -5.8230    4.1035 F         1 <0>        -0.1684
     18 F2          0.6830   -5.8249    5.7003 F         1 <0>        -0.1685
     19 F3         -1.3763   -4.9566    6.1742 F         1 <0>        -0.1687
     20 C13         0.8022   -3.2375    6.9846 C.1       1 <0>         0.2341
     21 N2          0.9295   -3.5306    8.0748 N.1       1 <0>        -0.3797
     22 C14         3.3884   -0.2399   -1.1473 C.3       1 <0>         0.1662
     23 C15         3.7545    1.2093   -1.3393 C.ar      1 <0>        -0.1196
     24 C16         3.3329    1.8833   -2.4710 C.ar      1 <0>        -0.0833
     25 C17         3.6668    3.2110   -2.6505 C.ar      1 <0>        -0.1024
     26 C18         4.4272    3.8702   -1.6919 C.ar      1 <0>        -0.0750
     27 C19         4.8487    3.1899   -0.5558 C.ar      1 <0>        -0.1355
     28 C20         4.5065    1.8636   -0.3806 C.ar      1 <0>        -0.0750
     29 S1          4.8562    5.5643   -1.9169 S.3       1 <0>        -0.1169
     30 C21         5.8277    5.9709   -0.4399 C.3       1 <0>        -0.1446
     31 C22        -1.5127   -0.8363   -0.1610 C.3       1 <0>        -0.1341
     32 H2          0.4156    2.0258    0.0971 H         1 <0>         0.0614
     33 H3         -1.0533    1.7514   -0.8700 H         1 <0>         0.0766
     34 H4         -1.1366    1.7061    0.9074 H         1 <0>         0.0681
     35 H5          0.6066   -1.3703   -1.4857 H         1 <0>         0.0842
     36 H6          0.7527    0.3661   -1.8902 H         1 <0>         0.0881
     37 H7          1.2443   -0.2930    3.5019 H         1 <0>         0.1524
     38 H8          1.5219   -0.9202    5.8614 H         1 <0>         0.1515
     39 H9         -0.5546   -4.0878    2.6914 H         1 <0>         0.1600
     40 H10         4.1649   -0.7369   -0.5659 H         1 <0>         0.0948
     41 H11         3.2971   -0.7235   -2.1199 H         1 <0>         0.0941
     42 H12         2.7420    1.3703   -3.2154 H         1 <0>         0.1279
     43 H13         3.3379    3.7365   -3.5348 H         1 <0>         0.1297
     44 H14         5.4397    3.6990    0.1912 H         1 <0>         0.1241
     45 H15         4.8303    1.3354    0.5041 H         1 <0>         0.1292
     46 H16         5.2176    5.8165    0.4501 H         1 <0>         0.0845
     47 H17         6.7062    5.3273   -0.3944 H         1 <0>         0.0851
     48 H18         6.1429    7.0132   -0.4879 H         1 <0>         0.1112
     49 H19        -1.9971   -0.5488   -1.0942 H         1 <0>         0.0677
     50 H20        -1.2745   -1.8996   -0.1878 H         1 <0>         0.0722
     51 H21        -2.1840   -0.6352    0.6739 H         1 <0>         0.0665
@<TRIPOS>BOND
     1    1    2 1
     2    1   32 1
     3    1   33 1
     4    1   34 1
     5    2    7 1
     6    2    3 1
     7    2   31 1
     8    3    4 1
     9    3   35 1
    10    3   36 1
    11    4    5 am
    12    4   22 1
    13    5    6 2
    14    5    7 1
    15    7    8 1
    16    7    9 1
    17    9   10 1
    18   10   15 ar
    19   10   11 ar
    20   11   12 ar
    21   11   37 1
    22   12   13 ar
    23   12   38 1
    24   13   14 ar
    25   13   20 1
    26   14   15 ar
    27   14   16 1
    28   15   39 1
    29   16   17 1
    30   16   18 1
    31   16   19 1
    32   20   21 3
    33   22   23 1
    34   22   40 1
    35   22   41 1
    36   23   28 ar
    37   23   24 ar
    38   24   25 ar
    39   24   42 1
    40   25   26 ar
    41   25   43 1
    42   26   27 ar
    43   26   29 1
    44   27   28 ar
    45   27   44 1
    46   28   45 1
    47   29   30 1
    48   30   46 1
    49   30   47 1
    50   30   48 1
    51   31   49 1
    52   31   50 1
    53   31   51 1
@<TRIPOS>MOLECULE
CHEMBL185883
   67    69     0     0     0
SMALL
USER_CHARGES

@<TRIPOS>ATOM
      1 C1         -0.0263    1.5154   -0.0197 C.3       1 <0>        -0.1566
      2 C2          0.0054   -0.0142   -0.0043 C.3       1 <0>         0.1294
      3 C3         -1.3948   -0.5751    0.1455 C.2       1 <0>         0.5341
      4 O1         -2.3277   -0.4283   -0.6148 O.2       1 <0>        -0.4278
      5 N1         -1.3868   -1.2717    1.2992 N.am      1 <0>        -0.5149
      6 C4         -0.1886   -1.2293    1.8929 C.2       1 <0>         0.7085
      7 O2          0.0639   -1.7826    2.9451 O.2       1 <0>        -0.5095
      8 N2          0.7055   -0.5060    1.1950 N.am      1 <0>        -0.4823
      9 O3          2.0563   -0.2648    1.5446 O.3       1 <0>        -0.0641
     10 C5          2.2508    0.9074    2.3383 C.3       1 <0>         0.0160
     11 C6          3.7391    1.0678    2.6547 C.3       1 <0>         0.0704
     12 O4          4.4604    1.3068    1.4445 O.3       1 <0>        -0.3755
     13 C7          5.8677    1.4720    1.6295 C.3       1 <0>         0.0646
     14 C8          6.5344    1.7207    0.2750 C.3       1 <0>         0.0651
     15 O5          6.0751    2.9633   -0.2609 O.3       1 <0>        -0.3807
     16 C9          6.6400    3.2924   -1.5316 C.3       1 <0>         0.0667
     17 C10         6.0802    4.6349   -2.0062 C.3       1 <0>        -0.0764
     18 C11         6.6760    4.9821   -3.3462 C.ar      1 <0>        -0.1025
     19 C12         7.8550    5.7070   -3.4098 C.ar      1 <0>        -0.0681
     20 C13         8.4105    6.0311   -4.6314 C.ar      1 <0>        -0.1525
     21 C14         7.7898    5.6312   -5.8056 C.ar      1 <0>         0.1707
     22 C15         6.5974    4.8975   -5.7456 C.ar      1 <0>        -0.1694
     23 C16         6.0487    4.5722   -4.5025 C.ar      1 <0>        -0.0645
     24 C17         5.9280    4.4667   -6.9877 C.2       1 <0>         0.5618
     25 O6          6.4108    4.7481   -8.0676 O.2       1 <0>        -0.5227
     26 N3          4.7813    3.7612   -6.9255 N.am      1 <0>        -0.8530
     27 O7          8.3343    5.9494   -7.0066 O.3       1 <0>        -0.4777
     28 C18        -2.4946   -1.9541    1.8128 C.ar      1 <0>         0.1620
     29 C19        -2.3566   -2.7452    2.9480 C.ar      1 <0>        -0.1037
     30 C20        -3.4448   -3.4185    3.4567 C.ar      1 <0>        -0.0459
     31 C21        -4.6894   -3.3056    2.8306 C.ar      1 <0>         0.0199
     32 C22        -4.8241   -2.5093    1.6902 C.ar      1 <0>        -0.1205
     33 C23        -3.7319   -1.8350    1.1903 C.ar      1 <0>        -0.0927
     34 C24        -6.1636   -2.3846    1.0111 C.3       1 <0>         0.5070
     35 F1         -6.0469   -1.5408   -0.0987 F         1 <0>        -0.1658
     36 F2         -6.5939   -3.6484    0.5929 F         1 <0>        -0.1681
     37 F3         -7.0934   -1.8487    1.9086 F         1 <0>        -0.1685
     38 C25        -5.8233   -4.0045    3.3561 C.1       1 <0>         0.2299
     39 N4         -6.7229   -4.5590    3.7730 N.1       1 <0>        -0.3700
     40 C26         0.6706   -0.5501   -1.2736 C.3       1 <0>        -0.1458
     41 H1          0.9937    1.8999   -0.0236 H         1 <0>         0.0906
     42 H2         -0.5475    1.8590   -0.9132 H         1 <0>         0.0957
     43 H3         -0.5475    1.8770    0.8666 H         1 <0>         0.0695
     44 H4          1.9001    1.7808    1.7886 H         1 <0>         0.0792
     45 H5          1.6897    0.8139    3.2681 H         1 <0>         0.0840
     46 H6          3.8777    1.9101    3.3326 H         1 <0>         0.0800
     47 H7          4.1107    0.1576    3.1254 H         1 <0>         0.0659
     48 H8          6.0504    2.3226    2.2861 H         1 <0>         0.0610
     49 H9          6.2834    0.5702    2.0789 H         1 <0>         0.0681
     50 H10         7.6161    1.7583    0.4039 H         1 <0>         0.0664
     51 H11         6.2780    0.9126   -0.4100 H         1 <0>         0.0599
     52 H12         7.7239    3.3626   -1.4402 H         1 <0>         0.0509
     53 H13         6.3858    2.5169   -2.2541 H         1 <0>         0.0513
     54 H14         4.9964    4.5647   -2.0977 H         1 <0>         0.0842
     55 H15         6.3345    5.4105   -1.2837 H         1 <0>         0.0847
     56 H16         8.3421    6.0206   -2.4984 H         1 <0>         0.1341
     57 H17         9.3295    6.5970   -4.6728 H         1 <0>         0.1391
     58 H18         5.1319    4.0039   -4.4481 H         1 <0>         0.1310
     59 H19         4.3961    3.5366   -6.0640 H         1 <0>         0.3994
     60 H20         4.3412    3.4779   -7.7421 H         1 <0>         0.4067
     61 H21         8.9557    5.2897   -7.3439 H         1 <0>         0.3976
     62 H22        -1.3946   -2.8319    3.4313 H         1 <0>         0.1834
     63 H23        -3.3367   -4.0333    4.3380 H         1 <0>         0.1587
     64 H24        -3.8361   -1.2162    0.3114 H         1 <0>         0.1779
     65 H25         1.6965   -0.1858   -1.3277 H         1 <0>         0.0914
     66 H26         0.6728   -1.6398   -1.2503 H         1 <0>         0.0718
     67 H27         0.1165   -0.2064   -2.1470 H         1 <0>         0.0902
@<TRIPOS>BOND
     1    1    2 1
     2    1   41 1
     3    1   42 1
     4    1   43 1
     5    2    8 1
     6    2    3 1
     7    2   40 1
     8    3    4 2
     9    3    5 am
    10    5    6 am
    11    5   28 1
    12    6    7 2
    13    6    8 am
    14    8    9 1
    15    9   10 1
    16   10   11 1
    17   10   44 1
    18   10   45 1
    19   11   12 1
    20   11   46 1
    21   11   47 1
    22   12   13 1
    23   13   14 1
    24   13   48 1
    25   13   49 1
    26   14   15 1
    27   14   50 1
    28   14   51 1
    29   15   16 1
    30   16   17 1
    31   16   52 1
    32   16   53 1
    33   17   18 1
    34   17   54 1
    35   17   55 1
    36   18   23 ar
    37   18   19 ar
    38   19   20 ar
    39   19   56 1
    40   20   21 ar
    41   20   57 1
    42   21   22 ar
    43   21   27 1
    44   22   23 ar
    45   22   24 1
    46   23   58 1
    47   24   25 2
    48   24   26 am
    49   26   59 1
    50   26   60 1
    51   27   61 1
    52   28   33 ar
    53   28   29 ar
    54   29   30 ar
    55   29   62 1
    56   30   31 ar
    57   30   63 1
    58   31   32 ar
    59   31   38 1
    60   32   33 ar
    61   32   34 1
    62   33   64 1
    63   34   35 1
    64   34   36 1
    65   34   37 1
    66   38   39 3
    67   40   65 1
    68   40   66 1
    69   40   67 1
@<TRIPOS>MOLECULE
CHEMBL379527
   33    36     0     0     0
SMALL
USER_CHARGES

@<TRIPOS>ATOM
      1 C1         -0.0178    1.4608    0.0101 C.3       1 <0>         0.0657
      2 N1          0.0021   -0.0041    0.0020 N.pl3     1 <0>        -0.4633
      3 C2         -0.0895   -0.7893   -1.1172 C.ar      1 <0>         0.0948
      4 C3         -0.2099   -0.4648   -2.4660 C.ar      1 <0>        -0.1115
      5 C4         -0.2803   -1.5139   -3.3655 C.ar      1 <0>        -0.1212
      6 C5         -0.2352   -2.8420   -2.9584 C.ar      1 <0>         0.0759
      7 C6         -0.1153   -3.1943   -1.6230 C.ar      1 <0>        -0.0900
      8 C7         -0.0414   -2.1460   -0.6965 C.ar      1 <0>        -0.0806
      9 C8          0.0835   -2.1179    0.7375 C.2       1 <0>        -0.1506
     10 C9          0.1207   -0.7970    1.1096 C.2       1 <0>         0.1041
     11 C10         0.2491   -0.4350    2.5356 C.ar      1 <0>        -0.0727
     12 C11        -0.0135    0.8515    2.9972 C.ar      1 <0>        -0.0797
     13 C12         0.1057    1.0898    4.3575 C.ar      1 <0>        -0.1699
     14 C13         0.4742    0.0485    5.1907 C.ar      1 <0>         0.1049
     15 N2          0.7265   -1.1561    4.7186 N.ar      1 <0>        -0.4777
     16 C14         0.6447   -1.4336    3.4308 C.ar      1 <0>         0.1569
     17 C15         1.0203   -2.8030    2.9315 C.3       1 <0>        -0.0704
     18 C16         0.1581   -3.2362    1.7415 C.3       1 <0>        -0.0423
     19 O1         -0.3113   -3.8236   -3.8965 O.3       1 <0>        -0.5003
     20 H1          1.0040    1.8378    0.0547 H         1 <0>         0.0754
     21 H2         -0.4992    1.8226   -0.8984 H         1 <0>         0.0894
     22 H3         -0.5729    1.8118    0.8800 H         1 <0>         0.0862
     23 H4         -0.2472    0.5628   -2.7962 H         1 <0>         0.1321
     24 H5         -0.3737   -1.2934   -4.4186 H         1 <0>         0.1298
     25 H6         -0.0808   -4.2278   -1.3116 H         1 <0>         0.1382
     26 H7         -0.3008    1.6395    2.3168 H         1 <0>         0.1399
     27 H8         -0.0857    2.0733    4.7608 H         1 <0>         0.1411
     28 H9          0.5573    0.2268    6.2526 H         1 <0>         0.1601
     29 H10         2.0682   -2.7952    2.6315 H         1 <0>         0.0895
     30 H11         0.8908   -3.5223    3.7401 H         1 <0>         0.0952
     31 H12        -0.8470   -3.4855    2.0817 H         1 <0>         0.0782
     32 H13         0.6094   -4.1121    1.2754 H         1 <0>         0.0866
     33 H14         0.5467   -4.1014   -4.2456 H         1 <0>         0.3866
@<TRIPOS>BOND
     1    1    2 1
     2    1   20 1
     3    1   21 1
     4    1   22 1
     5    2   10 1
     6    2    3 1
     7    3    8 ar
     8    3    4 ar
     9    4    5 ar
    10    4   23 1
    11    5    6 ar
    12    5   24 1
    13    6    7 ar
    14    6   19 1
    15    7    8 ar
    16    7   25 1
    17    8    9 1
    18    9   18 1
    19    9   10 2
    20   10   11 1
    21   11   16 ar
    22   11   12 ar
    23   12   13 ar
    24   12   26 1
    25   13   14 ar
    26   13   27 1
    27   14   15 ar
    28   14   28 1
    29   15   16 ar
    30   16   17 1
    31   17   18 1
    32   17   29 1
    33   17   30 1
    34   18   31 1
    35   18   32 1
    36   19   33 1
@<TRIPOS>MOLECULE
CHEMBL138059
   32    34     0     0     0
SMALL
USER_CHARGES

@<TRIPOS>ATOM
      1 C1         -0.0187    1.5258    0.0104 C.3       1 <0>        -0.1724
      2 C2          0.0021   -0.0041    0.0020 C.3       1 <0>         0.1661
      3 C3          0.7212   -0.4928   -1.2301 C.ar      1 <0>        -0.1546
      4 C4          0.0405   -0.7165   -2.4051 C.ar      1 <0>        -0.0618
      5 C5          0.7312   -1.1664   -3.5297 C.ar      1 <0>        -0.0343
      6 C6          2.1054   -1.3876   -3.4606 C.ar      1 <0>        -0.0659
      7 C7          2.7830   -1.1621   -2.2797 C.ar      1 <0>        -0.1398
      8 C8          2.0933   -0.7159   -1.1625 C.ar      1 <0>         0.1647
      9 N1          2.7552   -0.4828    0.0496 N.am      1 <0>        -0.6688
     10 C9          2.0326   -0.3551    1.1817 C.2       1 <0>         0.6620
     11 O1          2.5976   -0.1244    2.2325 O.2       1 <0>        -0.5004
     12 O2          0.6935   -0.4804    1.1602 O.3       1 <0>        -0.3312
     13 C10         0.0029   -1.4093   -4.8006 C.2       1 <0>        -0.1408
     14 C11         0.5593   -1.8683   -6.0170 C.2       1 <0>        -0.1085
     15 C12        -0.4672   -1.9462   -6.9110 C.2       1 <0>         0.0454
     16 O3         -1.6002   -1.5586   -6.2909 O.3       1 <0>        -0.1483
     17 C13        -1.3305   -1.2386   -5.0179 C.2       1 <0>         0.0217
     18 C14        -0.3603   -2.3672   -8.2755 C.1       1 <0>         0.2840
     19 N2         -0.2755   -2.7012   -9.3580 N.1       1 <0>        -0.3692
     20 C15        -1.4324   -0.5362    0.0065 C.3       1 <0>        -0.1430
     21 H1          1.0039    1.9031    0.0027 H         1 <0>         0.0610
     22 H2         -0.5459    1.8868   -0.8726 H         1 <0>         0.0847
     23 H3         -0.5289    1.8773    0.9072 H         1 <0>         0.0797
     24 H4         -1.0245   -0.5447   -2.4558 H         1 <0>         0.1371
     25 H5          2.6405   -1.7353   -4.3318 H         1 <0>         0.1364
     26 H6          3.8479   -1.3335   -2.2256 H         1 <0>         0.1386
     27 H7          3.7224   -0.4143    0.0748 H         1 <0>         0.4310
     28 H8          1.5955   -2.1101   -6.2018 H         1 <0>         0.1671
     29 H9         -2.0499   -0.8994   -4.2872 H         1 <0>         0.2193
     30 H10        -1.9563   -0.1760   -0.8789 H         1 <0>         0.0866
     31 H11        -1.4157   -1.6260    0.0005 H         1 <0>         0.0745
     32 H12        -1.9472   -0.1856    0.9010 H         1 <0>         0.0791
@<TRIPOS>BOND
     1    1    2 1
     2    1   21 1
     3    1   22 1
     4    1   23 1
     5    2   12 1
     6    2    3 1
     7    2   20 1
     8    3    8 ar
     9    3    4 ar
    10    4    5 ar
    11    4   24 1
    12    5    6 ar
    13    5   13 1
    14    6    7 ar
    15    6   25 1
    16    7    8 ar
    17    7   26 1
    18    8    9 1
    19    9   10 am
    20    9   27 1
    21   10   11 2
    22   10   12 1
    23   13   17 2
    24   13   14 1
    25   14   15 2
    26   14   28 1
    27   15   16 1
    28   15   18 1
    29   16   17 1
    30   17   29 1
    31   18   19 3
    32   20   30 1
    33   20   31 1
    34   20   32 1
@<TRIPOS>MOLECULE
CHEMBL237898
   41    43     0     0     0
SMALL
USER_CHARGES

@<TRIPOS>ATOM
      1 C1         -0.0163    1.3513    0.0095 C.2       1 <0>        -0.1605
      2 C2          1.1833    2.0380    0.0017 C.2       1 <0>        -0.1337
      3 C3          2.3426    1.3358   -0.0131 C.2       1 <0>        -0.1730
      4 S1          1.7535   -0.3495   -0.0166 S.3       1 <0>         0.0386
      5 C4          0.0021   -0.0041    0.0020 C.2       1 <0>        -0.1635
      6 C5          3.7608    1.8454   -0.0244 C.3       1 <0>         0.2040
      7 N1          4.2338    2.0036    1.3531 N.pl3     1 <0>        -0.6097
      8 C6          4.8992    0.8887    2.0317 C.3       1 <0>         0.0842
      9 C7          6.4061    0.9629    1.7769 C.3       1 <0>         0.4205
     10 F1          6.9035    2.1735    2.2713 F         1 <0>        -0.1624
     11 F2          7.0416   -0.1017    2.4249 F         1 <0>        -0.1840
     12 F3          6.6509    0.8849    0.4017 F         1 <0>        -0.1841
     13 C8          4.0503    3.2169    2.0193 C.2       1 <0>         0.2144
     14 C9          4.4855    3.3643    3.2721 C.2       1 <0>        -0.2746
     15 C10         4.3172    4.6758    3.9896 C.3       1 <0>         0.0055
     16 C11         3.0442    5.3770    3.5451 C.3       1 <0>         0.1767
     17 C12         2.9141    5.3590    2.0472 C.2       1 <0>        -0.1400
     18 C13         3.3808    4.3398    1.3380 C.2       1 <0>        -0.1165
     19 N2          3.0035    6.7542    4.0310 N.am      1 <0>        -0.7161
     20 C14         4.1273    7.4914    4.1035 C.2       1 <0>         0.5556
     21 O1          4.0674    8.6686    4.4027 O.2       1 <0>        -0.5164
     22 C15         5.4284    6.8666    3.8186 C.2       1 <0>        -0.1213
     23 C16         5.5226    5.5431    3.7515 C.2       1 <0>        -0.1393
     24 C17         6.8501    4.9047    3.4335 C.3       1 <0>         0.5008
     25 F4          7.8155    5.9011    3.2533 F         1 <0>        -0.1794
     26 F5          7.2318    4.0712    4.4904 F         1 <0>        -0.1716
     27 F6          6.7355    4.1491    2.2617 F         1 <0>        -0.1509
     28 H1         -0.9542    1.8866    0.0258 H         1 <0>         0.1343
     29 H2          1.1967    3.1179    0.0070 H         1 <0>         0.1315
     30 H3         -0.8275   -0.6955    0.0065 H         1 <0>         0.1860
     31 H4          4.3986    1.1333   -0.5480 H         1 <0>         0.0982
     32 H5          3.7967    2.8084   -0.5337 H         1 <0>         0.1055
     33 H6          4.7084    0.9495    3.1031 H         1 <0>         0.1244
     34 H7          4.5117   -0.0545    1.6465 H         1 <0>         0.1190
     35 H8          4.9618    2.5356    3.7749 H         1 <0>         0.1279
     36 H9          4.2347    4.4800    5.0587 H         1 <0>         0.1139
     37 H10         2.1926    4.8460    3.9704 H         1 <0>         0.1161
     38 H11         2.4388    6.1871    1.5423 H         1 <0>         0.1330
     39 H12         3.2675    4.3300    0.2640 H         1 <0>         0.1305
     40 H13         2.1572    7.1418    4.3040 H         1 <0>         0.4136
     41 H14         6.3031    7.4811    3.6645 H         1 <0>         0.1627
@<TRIPOS>BOND
     1    1    5 2
     2    1    2 1
     3    1   28 1
     4    2    3 2
     5    2   29 1
     6    3    4 1
     7    3    6 1
     8    4    5 1
     9    5   30 1
    10    6    7 1
    11    6   31 1
    12    6   32 1
    13    7    8 1
    14    7   13 1
    15    8    9 1
    16    8   33 1
    17    8   34 1
    18    9   10 1
    19    9   11 1
    20    9   12 1
    21   13   18 1
    22   13   14 2
    23   14   15 1
    24   14   35 1
    25   15   23 1
    26   15   16 1
    27   15   36 1
    28   16   17 1
    29   16   19 1
    30   16   37 1
    31   17   18 2
    32   17   38 1
    33   18   39 1
    34   19   20 am
    35   19   40 1
    36   20   21 2
    37   20   22 1
    38   22   23 2
    39   22   41 1
    40   23   24 1
    41   24   25 1
    42   24   26 1
    43   24   27 1
@<TRIPOS>MOLECULE
CHEMBL237898__1
   42    44     0     0     0
SMALL
USER_CHARGES

@<TRIPOS>ATOM
      1 C1         -0.0322    1.6046   -0.0383 C.2       1 <0>        -0.1768
      2 C2          1.1748    2.2727    0.0481 C.2       1 <0>        -0.0877
      3 C3          2.3262    1.5695   -0.0827 C.2       1 <0>        -0.2540
      4 S1          1.7186   -0.0899   -0.3368 S.3       1 <0>         0.0821
      5 C4         -0.0288    0.2659   -0.2514 C.2       1 <0>        -0.1172
      6 C5          3.7497    2.0609   -0.0284 C.3       1 <0>         0.1352
      7 N1          4.2338    2.0036    1.3531 N.pl3     1 <0>        -0.4244
      8 C6          3.5969    2.8231    2.3870 C.3       1 <0>        -0.0047
      9 C7          3.8506    4.3030    2.0929 C.3       1 <0>         0.4523
     10 F1          3.3134    4.6288    0.8429 F         1 <0>        -0.1656
     11 F2          3.2425    5.0857    3.0802 F         1 <0>        -0.1465
     12 F3          5.2280    4.5477    2.0865 F         1 <0>        -0.1663
     13 C8          5.2249    1.2281    1.6605 C.2       1 <0>         0.3720
     14 C9          5.8470    1.2607    3.0411 C.3       1 <0>        -0.1412
     15 C10         7.3694    1.1953    2.8633 C.3       1 <0>        -0.0540
     16 C11         7.7487   -0.0973    2.1573 C.3       1 <0>         0.1465
     17 C12         6.9433   -0.3155    0.9137 C.2       1 <0>         0.0189
     18 C13         5.7827    0.2793    0.6817 C.2       1 <0>        -0.2049
     19 N2          7.6147   -1.2429    3.0544 N.am      1 <0>        -0.7183
     20 C14         7.9268   -1.1319    4.3593 C.2       1 <0>         0.5497
     21 O1          7.9174   -2.1148    5.0754 O.2       1 <0>        -0.4791
     22 C15         8.2797    0.1840    4.9148 C.2       1 <0>        -0.0676
     23 C16         8.0317    1.2838    4.2112 C.2       1 <0>        -0.1781
     24 C17         8.4180    2.6300    4.7674 C.3       1 <0>         0.5059
     25 F4          9.0132    2.4627    6.0224 F         1 <0>        -0.1622
     26 F5          9.3241    3.2502    3.9005 F         1 <0>        -0.1641
     27 F6          7.2753    3.4269    4.8958 F         1 <0>        -0.1735
     28 H1         -0.9640    2.1404    0.0668 H         1 <0>         0.1505
     29 H2          1.2000    3.3391    0.2170 H         1 <0>         0.1423
     30 H3         -0.8659   -0.4100   -0.3449 H         1 <0>         0.2001
     31 H4          4.3761    1.4303   -0.6593 H         1 <0>         0.1435
     32 H5          3.7929    3.0897   -0.3861 H         1 <0>         0.1543
     33 H6          2.5237    2.6325    2.3920 H         1 <0>         0.1736
     34 H7          4.0155    2.5693    3.3609 H         1 <0>         0.1681
     35 H8          5.5730    2.1856    3.5487 H         1 <0>         0.1280
     36 H9          7.6951    2.0338    2.2477 H         1 <0>         0.1335
     37 H10         8.7983   -0.0295    1.8712 H         1 <0>         0.1257
     38 H11         7.3264   -0.9973    0.1688 H         1 <0>         0.1758
     39 H12         5.2446    0.0716   -0.2314 H         1 <0>         0.1751
     40 H13         7.2983   -2.0913    2.7065 H         1 <0>         0.4204
     41 H14         8.7379    0.2558    5.8901 H         1 <0>         0.1792
     42 H15         5.5050    0.4038    3.6214 H         1 <0>         0.1535
@<TRIPOS>BOND
     1    1    5 2
     2    1    2 1
     3    1   28 1
     4    2    3 2
     5    2   29 1
     6    3    4 1
     7    3    6 1
     8    4    5 1
     9    5   30 1
    10    6    7 1
    11    6   31 1
    12    6   32 1
    13    7    8 1
    14    7   13 2
    15    8    9 1
    16    8   33 1
    17    8   34 1
    18    9   10 1
    19    9   11 1
    20    9   12 1
    21   13   18 1
    22   13   14 1
    23   14   15 1
    24   14   35 1
    25   14   42 1
    26   15   23 1
    27   15   16 1
    28   15   36 1
    29   16   17 1
    30   16   19 1
    31   16   37 1
    32   17   18 2
    33   17   38 1
    34   18   39 1
    35   19   20 am
    36   19   40 1
    37   20   21 2
    38   20   22 1
    39   22   23 2
    40   22   41 1
    41   23   24 1
    42   24   25 1
    43   24   26 1
    44   24   27 1
@<TRIPOS>MOLECULE
CHEMBL237898__2
   41    43     0     0     0
SMALL
USER_CHARGES

@<TRIPOS>ATOM
      1 C1         -0.0163    1.3513    0.0095 C.2       1 <0>        -0.1606
      2 C2          1.1833    2.0380    0.0017 C.2       1 <0>        -0.1361
      3 C3          2.3426    1.3358   -0.0131 C.2       1 <0>        -0.1752
      4 S1          1.7535   -0.3495   -0.0166 S.3       1 <0>         0.0413
      5 C4          0.0021   -0.0041    0.0020 C.2       1 <0>        -0.1627
      6 C5          3.7608    1.8454   -0.0244 C.3       1 <0>         0.2047
      7 N1          4.2338    2.0036    1.3531 N.pl3     1 <0>        -0.6107
      8 C6          4.8992    0.8887    2.0317 C.3       1 <0>         0.0831
      9 C7          6.4061    0.9629    1.7769 C.3       1 <0>         0.4282
     10 F1          6.9035    2.1735    2.2713 F         1 <0>        -0.1712
     11 F2          7.0416   -0.1017    2.4249 F         1 <0>        -0.1811
     12 F3          6.6509    0.8849    0.4017 F         1 <0>        -0.1835
     13 C8          4.0503    3.2169    2.0193 C.2       1 <0>         0.1947
     14 C9          4.4876    3.3673    3.2803 C.2       1 <0>        -0.2615
     15 C10         4.2793    4.6961    3.9507 C.3       1 <0>        -0.0027
     16 C11         4.5081    5.8087    2.9234 C.3       1 <0>         0.1696
     17 C12         3.5874    5.5912    1.7567 C.2       1 <0>        -0.1271
     18 C13         3.3796    4.3436    1.3385 C.2       1 <0>        -0.1148
     19 N2          4.3022    7.1027    3.5660 N.am      1 <0>        -0.7172
     20 C14         4.7304    7.2661    4.8407 C.2       1 <0>         0.5544
     21 O1          4.5407    8.3184    5.4201 O.2       1 <0>        -0.5120
     22 C15         5.4288    6.1593    5.5210 C.2       1 <0>        -0.1098
     23 C16         5.2171    4.9040    5.1071 C.2       1 <0>        -0.1480
     24 C17         5.8959    3.7379    5.7785 C.3       1 <0>         0.5067
     25 F4          6.7084    4.2060    6.8167 F         1 <0>        -0.1732
     26 F5          4.9284    2.8712    6.2980 F         1 <0>        -0.1702
     27 F6          6.6809    3.0542    4.8439 F         1 <0>        -0.1618
     28 H1         -0.9542    1.8866    0.0258 H         1 <0>         0.1349
     29 H2          1.1967    3.1179    0.0070 H         1 <0>         0.1312
     30 H3         -0.8275   -0.6955    0.0065 H         1 <0>         0.1865
     31 H4          4.3986    1.1333   -0.5480 H         1 <0>         0.0988
     32 H5          3.7967    2.8084   -0.5337 H         1 <0>         0.1064
     33 H6          4.7084    0.9495    3.1031 H         1 <0>         0.1233
     34 H7          4.5117   -0.0545    1.6465 H         1 <0>         0.1207
     35 H8          4.9761    2.5553    3.7984 H         1 <0>         0.1320
     36 H9          3.2510    4.7613    4.3063 H         1 <0>         0.1092
     37 H10         5.5393    5.7593    2.5737 H         1 <0>         0.0959
     38 H11         3.1088    6.4263    1.2668 H         1 <0>         0.1425
     39 H12         2.7187    4.1570    0.5050 H         1 <0>         0.1344
     40 H13         3.8685    7.8290    3.0914 H         1 <0>         0.4135
     41 H14         6.1015    6.3589    6.3420 H         1 <0>         0.1672
@<TRIPOS>BOND
     1    1    5 2
     2    1    2 1
     3    1   28 1
     4    2    3 2
     5    2   29 1
     6    3    4 1
     7    3    6 1
     8    4    5 1
     9    5   30 1
    10    6    7 1
    11    6   31 1
    12    6   32 1
    13    7    8 1
    14    7   13 1
    15    8    9 1
    16    8   33 1
    17    8   34 1
    18    9   10 1
    19    9   11 1
    20    9   12 1
    21   13   18 1
    22   13   14 2
    23   14   15 1
    24   14   35 1
    25   15   23 1
    26   15   16 1
    27   15   36 1
    28   16   17 1
    29   16   19 1
    30   16   37 1
    31   17   18 2
    32   17   38 1
    33   18   39 1
    34   19   20 am
    35   19   40 1
    36   20   21 2
    37   20   22 1
    38   22   23 2
    39   22   41 1
    40   23   24 1
    41   24   25 1
    42   24   26 1
    43   24   27 1
@<TRIPOS>MOLECULE
CHEMBL237898__3
   42    44     0     0     0
SMALL
USER_CHARGES

@<TRIPOS>ATOM
      1 C1         -0.0277    1.6105   -0.0539 C.2       1 <0>        -0.1765
      2 C2          1.1807    2.2758    0.0349 C.2       1 <0>        -0.0885
      3 C3          2.3308    1.5691   -0.0888 C.2       1 <0>        -0.2527
      4 S1          1.7199   -0.0896   -0.3392 S.3       1 <0>         0.0824
      5 C4         -0.0269    0.2711   -0.2620 C.2       1 <0>        -0.1181
      6 C5          3.7554    2.0571   -0.0305 C.3       1 <0>         0.1355
      7 N1          4.2338    2.0036    1.3531 N.pl3     1 <0>        -0.4283
      8 C6          3.5932    2.8265    2.3820 C.3       1 <0>        -0.0034
      9 C7          3.8473    4.3054    2.0835 C.3       1 <0>         0.4516
     10 F1          3.3141    4.6266    0.8306 F         1 <0>        -0.1656
     11 F2          3.2356    5.0913    3.0660 F         1 <0>        -0.1468
     12 F3          5.2246    4.5507    2.0809 F         1 <0>        -0.1668
     13 C8          5.2232    1.2285    1.6669 C.2       1 <0>         0.3728
     14 C9          5.8338    1.2704    3.0555 C.3       1 <0>        -0.1447
     15 C10         7.3455    1.1111    2.8753 C.3       1 <0>        -0.0534
     16 C11         7.6217   -0.2520    2.2425 C.3       1 <0>         0.1416
     17 C12         6.8944   -0.3937    0.9442 C.2       1 <0>         0.0340
     18 C13         5.7792    0.2808    0.6870 C.2       1 <0>        -0.2200
     19 N2          9.0623   -0.4419    2.1034 N.am      1 <0>        -0.7198
     20 C14         9.8769    0.0214    3.0804 C.2       1 <0>         0.5503
     21 O1         11.0835   -0.0871    2.9744 O.2       1 <0>        -0.4765
     22 C15         9.2905    0.6581    4.2743 C.2       1 <0>        -0.0642
     23 C16         8.0689    1.1964    4.1915 C.2       1 <0>        -0.1853
     24 C17         7.4358    1.8693    5.3821 C.3       1 <0>         0.5079
     25 F4          8.3120    1.8114    6.4711 F         1 <0>        -0.1589
     26 F5          7.1645    3.2064    5.0724 F         1 <0>        -0.1679
     27 F6          6.2430    1.2149    5.7080 F         1 <0>        -0.1720
     28 H1         -0.9585    2.1491    0.0455 H         1 <0>         0.1502
     29 H2          1.2081    3.3427    0.2000 H         1 <0>         0.1421
     30 H3         -0.8654   -0.4030   -0.3564 H         1 <0>         0.1999
     31 H4          4.3827    1.4226   -0.6566 H         1 <0>         0.1434
     32 H5          3.8026    3.0844   -0.3918 H         1 <0>         0.1532
     33 H6          2.5200    2.6355    2.3840 H         1 <0>         0.1738
     34 H7          4.0086    2.5763    3.3582 H         1 <0>         0.1672
     35 H8          5.6135    2.2261    3.5311 H         1 <0>         0.1273
     36 H9          7.7140    1.8916    2.2095 H         1 <0>         0.1295
     37 H10         7.2540   -1.0206    2.9223 H         1 <0>         0.1282
     38 H11         7.2843   -1.0673    0.1953 H         1 <0>         0.1761
     39 H12         5.2747    0.1351   -0.2567 H         1 <0>         0.1745
     40 H13         9.4289   -0.8917    1.3261 H         1 <0>         0.4233
     41 H14         9.8403    0.6894    5.2034 H         1 <0>         0.1803
     42 H15         5.4420    0.4525    3.6601 H         1 <0>         0.1646
@<TRIPOS>BOND
     1    1    5 2
     2    1    2 1
     3    1   28 1
     4    2    3 2
     5    2   29 1
     6    3    4 1
     7    3    6 1
     8    4    5 1
     9    5   30 1
    10    6    7 1
    11    6   31 1
    12    6   32 1
    13    7    8 1
    14    7   13 2
    15    8    9 1
    16    8   33 1
    17    8   34 1
    18    9   10 1
    19    9   11 1
    20    9   12 1
    21   13   18 1
    22   13   14 1
    23   14   15 1
    24   14   35 1
    25   14   42 1
    26   15   23 1
    27   15   16 1
    28   15   36 1
    29   16   17 1
    30   16   19 1
    31   16   37 1
    32   17   18 2
    33   17   38 1
    34   18   39 1
    35   19   20 am
    36   19   40 1
    37   20   21 2
    38   20   22 1
    39   22   23 2
    40   22   41 1
    41   23   24 1
    42   24   25 1
    43   24   26 1
    44   24   27 1
@<TRIPOS>MOLECULE
CHEMBL237898__4
   41    43     0     0     0
SMALL
USER_CHARGES

@<TRIPOS>ATOM
      1 C1         -0.0163    1.3513    0.0095 C.2       1 <0>        -0.1609
      2 C2          1.1833    2.0380    0.0017 C.2       1 <0>        -0.1329
      3 C3          2.3426    1.3358   -0.0131 C.2       1 <0>        -0.1741
      4 S1          1.7535   -0.3495   -0.0166 S.3       1 <0>         0.0389
      5 C4          0.0021   -0.0041    0.0020 C.2       1 <0>        -0.1629
      6 C5          3.7608    1.8454   -0.0244 C.3       1 <0>         0.2046
      7 N1          4.2338    2.0036    1.3531 N.pl3     1 <0>        -0.6104
      8 C6          4.8992    0.8887    2.0317 C.3       1 <0>         0.0827
      9 C7          6.4061    0.9629    1.7769 C.3       1 <0>         0.4281
     10 F1          6.9035    2.1735    2.2713 F         1 <0>        -0.1741
     11 F2          7.0416   -0.1017    2.4249 F         1 <0>        -0.1807
     12 F3          6.6509    0.8849    0.4017 F         1 <0>        -0.1829
     13 C8          4.0503    3.2169    2.0193 C.2       1 <0>         0.1939
     14 C9          4.4876    3.3673    3.2803 C.2       1 <0>        -0.2619
     15 C10         4.2558    4.6875    3.9599 C.3       1 <0>        -0.0035
     16 C11         2.8730    5.2117    3.5617 C.3       1 <0>         0.1712
     17 C12         2.7996    5.3036    2.0642 C.2       1 <0>        -0.1297
     18 C13         3.3796    4.3436    1.3385 C.2       1 <0>        -0.1108
     19 N2          2.6426    6.4968    4.2138 N.am      1 <0>        -0.7171
     20 C14         3.0859    6.6658    5.4826 C.2       1 <0>         0.5544
     21 O1          2.9463    7.7363    6.0425 O.2       1 <0>        -0.5115
     22 C15         3.7396    5.5426    6.1804 C.2       1 <0>        -0.1092
     23 C16         4.3188    4.5760    5.4578 C.2       1 <0>        -0.1487
     24 C17         5.0107    3.4146    6.1236 C.3       1 <0>         0.5084
     25 F4          4.9240    3.5544    7.5129 F         1 <0>        -0.1727
     26 F5          4.3944    2.2200    5.7358 F         1 <0>        -0.1686
     27 F6          6.3560    3.3911    5.7404 F         1 <0>        -0.1666
     28 H1         -0.9542    1.8866    0.0258 H         1 <0>         0.1344
     29 H2          1.1967    3.1179    0.0070 H         1 <0>         0.1316
     30 H3         -0.8275   -0.6955    0.0065 H         1 <0>         0.1861
     31 H4          4.3986    1.1333   -0.5480 H         1 <0>         0.0982
     32 H5          3.7967    2.8084   -0.5337 H         1 <0>         0.1058
     33 H6          4.7084    0.9495    3.1031 H         1 <0>         0.1245
     34 H7          4.5117   -0.0545    1.6465 H         1 <0>         0.1214
     35 H8          4.9919    2.5611    3.7922 H         1 <0>         0.1316
     36 H9          5.0060    5.4020    3.6213 H         1 <0>         0.1105
     37 H10         2.1157    4.5094    3.9100 H         1 <0>         0.0939
     38 H11         2.2931    6.1284    1.5850 H         1 <0>         0.1421
     39 H12         3.3559    4.3880    0.2596 H         1 <0>         0.1357
     40 H13         2.1830    7.2137    3.7493 H         1 <0>         0.4136
     41 H14         3.7504    5.5005    7.2595 H         1 <0>         0.1672
@<TRIPOS>BOND
     1    1    5 2
     2    1    2 1
     3    1   28 1
     4    2    3 2
     5    2   29 1
     6    3    4 1
     7    3    6 1
     8    4    5 1
     9    5   30 1
    10    6    7 1
    11    6   31 1
    12    6   32 1
    13    7    8 1
    14    7   13 1
    15    8    9 1
    16    8   33 1
    17    8   34 1
    18    9   10 1
    19    9   11 1
    20    9   12 1
    21   13   18 1
    22   13   14 2
    23   14   15 1
    24   14   35 1
    25   15   23 1
    26   15   16 1
    27   15   36 1
    28   16   17 1
    29   16   19 1
    30   16   37 1
    31   17   18 2
    32   17   38 1
    33   18   39 1
    34   19   20 am
    35   19   40 1
    36   20   21 2
    37   20   22 1
    38   22   23 2
    39   22   41 1
    40   23   24 1
    41   24   25 1
    42   24   26 1
    43   24   27 1
@<TRIPOS>MOLECULE
CHEMBL237898__5
   42    44     0     0     0
SMALL
USER_CHARGES

@<TRIPOS>ATOM
      1 C1          5.1308    4.2796   -2.4296 C.2       1 <0>        -0.1790
      2 C2          5.0633    3.1205   -1.6795 C.2       1 <0>        -0.0817
      3 C3          3.9865    2.9152   -0.8823 C.2       1 <0>        -0.2558
      4 S1          3.0212    4.3873   -1.1791 S.3       1 <0>         0.0861
      5 C4          4.1181    5.1767   -2.3456 C.2       1 <0>        -0.1191
      6 C5          3.6828    1.7471    0.0201 C.3       1 <0>         0.1342
      7 N1          4.2338    2.0036    1.3531 N.pl3     1 <0>        -0.4272
      8 C6          3.6972    3.0950    2.1699 C.3       1 <0>        -0.0060
      9 C7          2.2485    2.7828    2.5503 C.3       1 <0>         0.4512
     10 F1          2.2046    1.5896    3.2794 F         1 <0>        -0.1665
     11 F2          1.7362    3.8251    3.3303 F         1 <0>        -0.1457
     12 F3          1.4801    2.6482    1.3890 F         1 <0>        -0.1641
     13 C8          5.1953    1.2653    1.8096 C.2       1 <0>         0.3734
     14 C9          5.6688    1.4047    3.2446 C.3       1 <0>        -0.1453
     15 C10         5.9689   -0.0096    3.7473 C.3       1 <0>        -0.0533
     16 C11         7.0937   -0.6017    2.8992 C.3       1 <0>         0.1415
     17 C12         6.7262   -0.5987    1.4501 C.2       1 <0>         0.0327
     18 C13         5.8519    0.2658    0.9509 C.2       1 <0>        -0.2192
     19 N2          7.4257   -1.9350    3.3921 N.am      1 <0>        -0.7198
     20 C14         7.4029   -2.1594    4.7269 C.2       1 <0>         0.5504
     21 O1          7.6366   -3.2694    5.1653 O.2       1 <0>        -0.4765
     22 C15         7.0932   -1.0481    5.6455 C.2       1 <0>        -0.0643
     23 C16         6.3945   -0.0024    5.1902 C.2       1 <0>        -0.1852
     24 C17         6.0442    1.1498    6.0962 C.3       1 <0>         0.5078
     25 F4          6.5549    0.9086    7.3761 F         1 <0>        -0.1589
     26 F5          6.5992    2.3288    5.5871 F         1 <0>        -0.1720
     27 F6          4.6531    1.2816    6.1663 F         1 <0>        -0.1678
     28 H1          5.9798    4.4697   -3.0695 H         1 <0>         0.1492
     29 H2          5.8566    2.3892   -1.7283 H         1 <0>         0.1398
     30 H3          4.0045    6.1235   -2.8526 H         1 <0>         0.1999
     31 H4          2.6033    1.6149    0.0924 H         1 <0>         0.1486
     32 H5          4.1327    0.8435   -0.3913 H         1 <0>         0.1491
     33 H6          4.2959    3.1999    3.0747 H         1 <0>         0.1682
     34 H7          3.7314    4.0246    1.6018 H         1 <0>         0.1720
     35 H8          6.5722    2.0134    3.2819 H         1 <0>         0.1643
     36 H9          5.0787   -0.6287    3.6365 H         1 <0>         0.1295
     37 H10         7.9772    0.0239    3.0258 H         1 <0>         0.1275
     38 H11         7.1815   -1.3239    0.7920 H         1 <0>         0.1757
     39 H12         5.6220    0.2384   -0.1040 H         1 <0>         0.1754
     40 H13         7.6578   -2.6465    2.7750 H         1 <0>         0.4231
     41 H14         7.4259   -1.0784    6.6725 H         1 <0>         0.1802
     42 H15         4.8865    1.8586    3.8530 H         1 <0>         0.1273
@<TRIPOS>BOND
     1    1    5 2
     2    1    2 1
     3    1   28 1
     4    2    3 2
     5    2   29 1
     6    3    4 1
     7    3    6 1
     8    4    5 1
     9    5   30 1
    10    6    7 1
    11    6   31 1
    12    6   32 1
    13    7    8 1
    14    7   13 2
    15    8    9 1
    16    8   33 1
    17    8   34 1
    18    9   10 1
    19    9   11 1
    20    9   12 1
    21   13   18 1
    22   13   14 1
    23   14   15 1
    24   14   35 1
    25   14   42 1
    26   15   23 1
    27   15   16 1
    28   15   36 1
    29   16   17 1
    30   16   19 1
    31   16   37 1
    32   17   18 2
    33   17   38 1
    34   18   39 1
    35   19   20 am
    36   19   40 1
    37   20   21 2
    38   20   22 1
    39   22   23 2
    40   22   41 1
    41   23   24 1
    42   24   25 1
    43   24   26 1
    44   24   27 1
@<TRIPOS>MOLECULE
CHEMBL237898__6
   41    43     0     0     0
SMALL
USER_CHARGES

@<TRIPOS>ATOM
      1 C1         -0.0163    1.3513    0.0095 C.2       1 <0>        -0.1595
      2 C2          1.1833    2.0380    0.0017 C.2       1 <0>        -0.1334
      3 C3          2.3426    1.3358   -0.0131 C.2       1 <0>        -0.1747
      4 S1          1.7535   -0.3495   -0.0166 S.3       1 <0>         0.0399
      5 C4          0.0021   -0.0041    0.0020 C.2       1 <0>        -0.1627
      6 C5          3.7608    1.8454   -0.0244 C.3       1 <0>         0.2046
      7 N1          4.2338    2.0036    1.3531 N.pl3     1 <0>        -0.6098
      8 C6          4.8992    0.8887    2.0317 C.3       1 <0>         0.0832
      9 C7          6.4061    0.9629    1.7769 C.3       1 <0>         0.4295
     10 F1          6.9035    2.1735    2.2713 F         1 <0>        -0.1756
     11 F2          7.0416   -0.1017    2.4249 F         1 <0>        -0.1812
     12 F3          6.6509    0.8849    0.4017 F         1 <0>        -0.1827
     13 C8          4.0503    3.2169    2.0193 C.2       1 <0>         0.2148
     14 C9          4.4855    3.3643    3.2721 C.2       1 <0>        -0.2734
     15 C10         4.2694    4.6583    4.0083 C.3       1 <0>         0.0053
     16 C11         4.3087    5.8388    3.0518 C.3       1 <0>         0.1757
     17 C12         3.4820    5.5664    1.8256 C.2       1 <0>        -0.1383
     18 C13         3.3808    4.3398    1.3380 C.2       1 <0>        -0.1191
     19 N2          3.8438    7.0611    3.7032 N.am      1 <0>        -0.7154
     20 C14         2.8447    7.0228    4.6043 C.2       1 <0>         0.5553
     21 O1          2.3910    8.0561    5.0576 O.2       1 <0>        -0.5163
     22 C15         2.3038    5.7253    5.0381 C.2       1 <0>        -0.1188
     23 C16         2.9623    4.6081    4.7504 C.2       1 <0>        -0.1408
     24 C17         2.3942    3.2775    5.1720 C.3       1 <0>         0.5039
     25 F4          1.1823    3.4787    5.8412 F         1 <0>        -0.1771
     26 F5          2.1760    2.4840    4.0406 F         1 <0>        -0.1625
     27 F6          3.2971    2.6344    6.0255 F         1 <0>        -0.1724
     28 H1         -0.9542    1.8866    0.0258 H         1 <0>         0.1343
     29 H2          1.1967    3.1179    0.0070 H         1 <0>         0.1301
     30 H3         -0.8275   -0.6955    0.0065 H         1 <0>         0.1861
     31 H4          4.3986    1.1333   -0.5480 H         1 <0>         0.0984
     32 H5          3.7967    2.8084   -0.5337 H         1 <0>         0.1060
     33 H6          4.7084    0.9495    3.1031 H         1 <0>         0.1248
     34 H7          4.5117   -0.0545    1.6465 H         1 <0>         0.1208
     35 H8          4.9964    2.5482    3.7614 H         1 <0>         0.1278
     36 H9          5.0754    4.7869    4.7307 H         1 <0>         0.1149
     37 H10         5.3418    5.9961    2.7418 H         1 <0>         0.1181
     38 H11         2.9690    6.3807    1.3356 H         1 <0>         0.1335
     39 H12         2.8039    4.1619    0.4425 H         1 <0>         0.1299
     40 H13         4.2599    7.9095    3.4840 H         1 <0>         0.4141
     41 H14         1.3756    5.6813    5.5885 H         1 <0>         0.1626
@<TRIPOS>BOND
     1    1    5 2
     2    1    2 1
     3    1   28 1
     4    2    3 2
     5    2   29 1
     6    3    4 1
     7    3    6 1
     8    4    5 1
     9    5   30 1
    10    6    7 1
    11    6   31 1
    12    6   32 1
    13    7    8 1
    14    7   13 1
    15    8    9 1
    16    8   33 1
    17    8   34 1
    18    9   10 1
    19    9   11 1
    20    9   12 1
    21   13   18 1
    22   13   14 2
    23   14   15 1
    24   14   35 1
    25   15   23 1
    26   15   16 1
    27   15   36 1
    28   16   17 1
    29   16   19 1
    30   16   37 1
    31   17   18 2
    32   17   38 1
    33   18   39 1
    34   19   20 am
    35   19   40 1
    36   20   21 2
    37   20   22 1
    38   22   23 2
    39   22   41 1
    40   23   24 1
    41   24   25 1
    42   24   26 1
    43   24   27 1
@<TRIPOS>MOLECULE
CHEMBL237898__7
   42    44     0     0     0
SMALL
USER_CHARGES

@<TRIPOS>ATOM
      1 C1          5.1370    4.2864   -2.4240 C.2       1 <0>        -0.1791
      2 C2          5.0691    3.1261   -1.6759 C.2       1 <0>        -0.0812
      3 C3          3.9907    2.9183   -0.8814 C.2       1 <0>        -0.2571
      4 S1          3.0244    4.3898   -1.1782 S.3       1 <0>         0.0869
      5 C4          4.1231    5.1822   -2.3410 C.2       1 <0>        -0.1185
      6 C5          3.6862    1.7485    0.0185 C.3       1 <0>         0.1340
      7 N1          4.2338    2.0036    1.3531 N.pl3     1 <0>        -0.4233
      8 C6          3.6958    3.0947    2.1693 C.3       1 <0>        -0.0074
      9 C7          2.2470    2.7815    2.5486 C.3       1 <0>         0.4520
     10 F1          2.2035    1.5884    3.2779 F         1 <0>        -0.1661
     11 F2          1.7333    3.8235    3.3280 F         1 <0>        -0.1454
     12 F3          1.4796    2.6461    1.3868 F         1 <0>        -0.1640
     13 C8          5.1936    1.2642    1.8116 C.2       1 <0>         0.3726
     14 C9          5.6689    1.3956    3.2437 C.3       1 <0>        -0.1417
     15 C10         5.8835   -0.0215    3.7908 C.3       1 <0>        -0.0540
     16 C11         6.9380   -0.7379    2.9614 C.3       1 <0>         0.1462
     17 C12         6.6545   -0.6484    1.4935 C.2       1 <0>         0.0178
     18 C13         5.8572    0.2619    0.9604 C.2       1 <0>        -0.2044
     19 N2          8.2733   -0.2201    3.2513 N.am      1 <0>        -0.7185
     20 C14         8.6091    0.1482    4.5019 C.2       1 <0>         0.5497
     21 O1          9.7524    0.4757    4.7561 O.2       1 <0>        -0.4792
     22 C15         7.5863    0.1530    5.5595 C.2       1 <0>        -0.0679
     23 C16         6.3017    0.0605    5.2337 C.2       1 <0>        -0.1778
     24 C17         5.2551    0.0386    6.3178 C.3       1 <0>         0.5057
     25 F4          5.8768    0.1256    7.5680 F         1 <0>        -0.1621
     26 F5          4.3885    1.1241    6.1514 F         1 <0>        -0.1732
     27 F6          4.5284   -1.1544    6.2403 F         1 <0>        -0.1641
     28 H1          5.9872    4.4784   -3.0616 H         1 <0>         0.1494
     29 H2          5.8633    2.3957   -1.7239 H         1 <0>         0.1394
     30 H3          4.0096    6.1297   -2.8468 H         1 <0>         0.2002
     31 H4          2.6066    1.6150    0.0881 H         1 <0>         0.1496
     32 H5          4.1381    0.8461   -0.3933 H         1 <0>         0.1493
     33 H6          4.2937    3.2002    3.0746 H         1 <0>         0.1692
     34 H7          3.7298    4.0243    1.6011 H         1 <0>         0.1718
     35 H8          6.6071    1.9496    3.2729 H         1 <0>         0.1531
     36 H9          4.9497   -0.5791    3.7190 H         1 <0>         0.1336
     37 H10         6.9297   -1.7910    3.2424 H         1 <0>         0.1256
     38 H11         7.1219   -1.3675    0.8372 H         1 <0>         0.1755
     39 H12         5.6953    0.2727   -0.1073 H         1 <0>         0.1760
     40 H13         8.9236   -0.1406    2.5360 H         1 <0>         0.4202
     41 H14         7.8786    0.2310    6.5963 H         1 <0>         0.1792
     42 H15         4.9148    1.9115    3.8380 H         1 <0>         0.1280
@<TRIPOS>BOND
     1    1    5 2
     2    1    2 1
     3    1   28 1
     4    2    3 2
     5    2   29 1
     6    3    4 1
     7    3    6 1
     8    4    5 1
     9    5   30 1
    10    6    7 1
    11    6   31 1
    12    6   32 1
    13    7    8 1
    14    7   13 2
    15    8    9 1
    16    8   33 1
    17    8   34 1
    18    9   10 1
    19    9   11 1
    20    9   12 1
    21   13   18 1
    22   13   14 1
    23   14   15 1
    24   14   35 1
    25   14   42 1
    26   15   23 1
    27   15   16 1
    28   15   36 1
    29   16   17 1
    30   16   19 1
    31   16   37 1
    32   17   18 2
    33   17   38 1
    34   18   39 1
    35   19   20 am
    36   19   40 1
    37   20   21 2
    38   20   22 1
    39   22   23 2
    40   22   41 1
    41   23   24 1
    42   24   25 1
    43   24   26 1
    44   24   27 1
@<TRIPOS>MOLECULE
CHEMBL469759
   39    40     0     0     0
SMALL
USER_CHARGES

@<TRIPOS>ATOM
      1 C1         -0.0295    1.5317    0.0187 C.3       1 <0>        -0.1411
      2 C2         -0.0000    0.0020    0.0023 C.3       1 <0>         0.1298
      3 C3          0.7447   -0.5070    1.2381 C.3       1 <0>         0.0422
      4 O1          2.0432    0.0875    1.2902 O.3       1 <0>        -0.2946
      5 C4          2.8391   -0.2608    2.3333 C.ar      1 <0>         0.1600
      6 C5          2.3789   -1.1629    3.2850 C.ar      1 <0>        -0.2116
      7 C6          3.1833   -1.5194    4.3446 C.ar      1 <0>        -0.0263
      8 C7          4.4640   -0.9725    4.4620 C.ar      1 <0>        -0.0677
      9 C8          4.9229   -0.0657    3.5027 C.ar      1 <0>        -0.0287
     10 C9          4.1139    0.2813    2.4433 C.ar      1 <0>        -0.1494
     11 C10         5.3036   -1.3399    5.5623 C.1       1 <0>         0.2536
     12 N1          5.9696   -1.6314    6.4352 N.1       1 <0>        -0.4167
     13 C11        -1.4108   -0.5278    0.0124 C.2       1 <0>         0.4980
     14 O2         -1.9347   -0.8376    1.0614 O.2       1 <0>        -0.5026
     15 N2         -2.0902   -0.6573   -1.1443 N.am      1 <0>        -0.6597
     16 C12        -3.3595   -1.2371   -1.1468 C.ar      1 <0>         0.1744
     17 C13        -4.2221   -1.0234   -0.0762 C.ar      1 <0>        -0.1052
     18 C14        -5.4750   -1.5939   -0.0745 C.ar      1 <0>        -0.0453
     19 C15        -5.8808   -2.3887   -1.1506 C.ar      1 <0>        -0.0065
     20 C16        -5.0117   -2.6011   -2.2251 C.ar      1 <0>        -0.0461
     21 C17        -3.7611   -2.0223   -2.2218 C.ar      1 <0>        -0.1089
     22 I1         -5.6128   -3.7910   -3.8412 I         1 <0>        -0.0101
     23 C18        -7.1831   -2.9843   -1.1521 C.1       1 <0>         0.2363
     24 N3         -8.2162   -3.4567   -1.1534 N.1       1 <0>        -0.3810
     25 O3          0.6697   -0.4489   -1.1767 O.3       1 <0>        -0.5346
     26 H1          0.9908    1.9149    0.0114 H         1 <0>         0.0931
     27 H2         -0.5601    1.8943   -0.8617 H         1 <0>         0.0736
     28 H3         -0.5404    1.8756    0.9181 H         1 <0>         0.0820
     29 H4          0.1862   -0.2389    2.1350 H         1 <0>         0.0933
     30 H5          0.8434   -1.5910    1.1820 H         1 <0>         0.0759
     31 H6          1.3889   -1.5847    3.1937 H         1 <0>         0.1391
     32 H7          2.8247   -2.2202    5.0840 H         1 <0>         0.1371
     33 H8          5.9118    0.3596    3.5899 H         1 <0>         0.1419
     34 H9          4.4694    0.9786    1.6991 H         1 <0>         0.1443
     35 H10        -1.6970   -0.3474   -1.9751 H         1 <0>         0.4244
     36 H11        -3.9082   -0.4093    0.7549 H         1 <0>         0.1569
     37 H12        -6.1435   -1.4279    0.7574 H         1 <0>         0.1485
     38 H13        -3.0905   -2.1824   -3.0531 H         1 <0>         0.1463
     39 H14         0.7258   -1.4112   -1.2536 H         1 <0>         0.3855
@<TRIPOS>BOND
     1    1    2 1
     2    1   26 1
     3    1   27 1
     4    1   28 1
     5    2    3 1
     6    2   13 1
     7    2   25 1
     8    3    4 1
     9    3   29 1
    10    3   30 1
    11    4    5 1
    12    5   10 ar
    13    5    6 ar
    14    6    7 ar
    15    6   31 1
    16    7    8 ar
    17    7   32 1
    18    8    9 ar
    19    8   11 1
    20    9   10 ar
    21    9   33 1
    22   10   34 1
    23   11   12 3
    24   13   14 2
    25   13   15 am
    26   15   16 1
    27   15   35 1
    28   16   21 ar
    29   16   17 ar
    30   17   18 ar
    31   17   36 1
    32   18   19 ar
    33   18   37 1
    34   19   20 ar
    35   19   23 1
    36   20   21 ar
    37   20   22 1
    38   21   38 1
    39   23   24 3
    40   25   39 1
@<TRIPOS>MOLECULE
CHEMBL1210090
   56    60     0     0     0
SMALL
USER_CHARGES

@<TRIPOS>ATOM
      1 C1          0.0128    1.4962    0.1212 C.3       1 <0>        -0.1419
      2 C2          0.0246   -0.0325    0.0601 C.3       1 <0>         0.1071
      3 C3         -1.3978   -0.6169    0.0908 C.3       1 <0>         0.1076
      4 N1         -1.2862   -2.0830    0.0054 N.pl3     1 <0>        -1.0032
      5 C4         -0.2962   -2.7541    0.8645 C.3       1 <0>         0.1074
      6 C5          1.0249   -1.9730    0.7642 C.3       1 <0>         0.1067
      7 O1          0.7570   -0.6105    1.1631 O.3       1 <0>        -0.3355
      8 C6          1.4131   -1.8775   -0.7279 C.3       1 <0>        -0.1451
      9 H1          1.1090   -2.7520   -1.3031 H         1 <0>         0.1459
     10 C7          0.7416   -0.5528   -1.2055 C.3       1 <0>        -0.1462
     11 H2          0.0644   -0.7031   -2.0464 H         1 <0>         0.1448
     12 C8          1.9069    0.3567   -1.5231 C.2       1 <0>         0.5444
     13 O2          1.8164    1.4942   -1.9322 O.2       1 <0>        -0.4516
     14 N2          3.0536   -0.2890   -1.2816 N.am      1 <0>        -0.5416
     15 C9          2.8923   -1.5843   -0.8375 C.2       1 <0>         0.5461
     16 O3          3.7822   -2.3592   -0.5599 O.2       1 <0>        -0.4370
     17 C10         4.3081    0.2968   -1.4810 C.ar      1 <0>         0.1396
     18 C11         5.1301    0.5634   -0.3915 C.ar      1 <0>        -0.0666
     19 C12         6.3656    1.1405   -0.5837 C.ar      1 <0>        -0.0555
     20 C13         6.7932    1.4578   -1.8759 C.ar      1 <0>         0.0412
     21 C14         5.9646    1.1880   -2.9682 C.ar      1 <0>        -0.1306
     22 C15         4.7323    0.6058   -2.7683 C.ar      1 <0>        -0.0535
     23 C16         6.4207    1.5286   -4.3635 C.3       1 <0>         0.5073
     24 F1          5.4274    1.1673   -5.2801 F         1 <0>        -0.1686
     25 F2          6.6600    2.9041   -4.4532 F         1 <0>        -0.1667
     26 F3          7.5982    0.8307   -4.6527 F         1 <0>        -0.1675
     27 C17         8.0771    2.0584   -2.0800 C.1       1 <0>         0.2261
     28 N3          9.0956    2.5349   -2.2418 N.1       1 <0>        -0.3619
     29 C18         2.1278   -2.6097    1.6123 C.3       1 <0>        -0.1417
     30 S1         -2.2467   -2.9517   -1.0266 S.o2      1 <0>         2.6858
     31 O4         -2.3179   -4.2704   -0.5020 O.2       1 <0>        -0.9439
     32 O5         -3.4046   -2.1630   -1.2646 O.2       1 <0>        -0.9436
     33 C19        -1.3910   -3.0663   -2.5626 C.ar      1 <0>        -0.6845
     34 C20        -1.5733   -2.0953   -3.5295 C.ar      1 <0>        -0.0261
     35 C21        -0.9019   -2.1852   -4.7345 C.ar      1 <0>        -0.1354
     36 C22        -0.0479   -3.2458   -4.9725 C.ar      1 <0>        -0.0603
     37 C23         0.1351   -4.2163   -4.0053 C.ar      1 <0>        -0.1356
     38 C24        -0.5330   -4.1242   -2.7986 C.ar      1 <0>        -0.0266
     39 H3          1.0372    1.8682    0.1099 H         1 <0>         0.0744
     40 H4         -0.5264    1.8901   -0.7403 H         1 <0>         0.0890
     41 H5         -0.4811    1.8193    1.0376 H         1 <0>         0.0808
     42 H6         -1.8911   -0.3382    1.0220 H         1 <0>         0.1014
     43 H7         -1.9697   -0.2405   -0.7574 H         1 <0>         0.1068
     44 H8         -0.6455   -2.7567    1.8970 H         1 <0>         0.1014
     45 H9         -0.1457   -3.7783    0.5230 H         1 <0>         0.1066
     46 H10         4.7989    0.3179    0.6068 H         1 <0>         0.1518
     47 H11         7.0031    1.3479    0.2631 H         1 <0>         0.1600
     48 H12         4.0929    0.3932   -3.6123 H         1 <0>         0.1541
     49 H13         2.3151   -3.6247    1.2621 H         1 <0>         0.0893
     50 H14         3.0405   -2.0204    1.5232 H         1 <0>         0.0726
     51 H15         1.8136   -2.6374    2.6556 H         1 <0>         0.0826
     52 H16        -2.2405   -1.2667   -3.3436 H         1 <0>         0.1420
     53 H17        -1.0449   -1.4270   -5.4902 H         1 <0>         0.1363
     54 H18         0.4761   -3.3164   -5.9142 H         1 <0>         0.1336
     55 H19         0.8020   -5.0451   -4.1913 H         1 <0>         0.1360
     56 H20        -0.3872   -4.8804   -2.0415 H         1 <0>         0.1419
@<TRIPOS>BOND
     1    1    2 1
     2    1   39 1
     3    1   40 1
     4    1   41 1
     5    2    7 1
     6    2   10 1
     7    2    3 1
     8    3    4 1
     9    3   42 1
    10    3   43 1
    11    4    5 1
    12    4   30 1
    13    5    6 1
    14    5   44 1
    15    5   45 1
    16    6    7 1
    17    6    8 1
    18    6   29 1
    19    8    9 1
    20    8   15 1
    21    8   10 1
    22   10   11 1
    23   10   12 1
    24   12   13 2
    25   12   14 am
    26   14   15 am
    27   14   17 1
    28   15   16 2
    29   17   22 ar
    30   17   18 ar
    31   18   19 ar
    32   18   46 1
    33   19   20 ar
    34   19   47 1
    35   20   21 ar
    36   20   27 1
    37   21   22 ar
    38   21   23 1
    39   22   48 1
    40   23   24 1
    41   23   25 1
    42   23   26 1
    43   27   28 3
    44   29   49 1
    45   29   50 1
    46   29   51 1
    47   30   31 2
    48   30   32 2
    49   30   33 1
    50   33   38 ar
    51   33   34 ar
    52   34   35 ar
    53   34   52 1
    54   35   36 ar
    55   35   53 1
    56   36   37 ar
    57   36   54 1
    58   37   38 ar
    59   37   55 1
    60   38   56 1
@<TRIPOS>MOLECULE
CHEMBL421986
   43    44     0     0     0
SMALL
USER_CHARGES

@<TRIPOS>ATOM
      1 C1         -0.0322    1.5192    0.0160 C.3       1 <0>        -0.1464
      2 C2          0.0002   -0.0104    0.0036 C.3       1 <0>         0.1459
      3 C3          0.7455   -0.5148    1.2410 C.3       1 <0>        -0.1413
      4 S1         -0.0184    0.1804    2.7322 S.3       1 <0>        -0.0542
      5 C4          0.9400   -0.4856    4.0522 C.ar      1 <0>        -0.0953
      6 C5          2.0149   -1.3392    3.7704 C.ar      1 <0>        -0.1160
      7 C6          2.7596   -1.8581    4.7819 C.ar      1 <0>        -0.0703
      8 C7          2.4458   -1.5327    6.1266 C.ar      1 <0>         0.1166
      9 C8          1.3560   -0.6673    6.4019 C.ar      1 <0>        -0.1364
     10 C9          0.6260   -0.1539    5.3769 C.ar      1 <0>        -0.0729
     11 N1          3.1661   -2.0343    7.1193 N.2       1 <0>        -0.4501
     12 C10         2.8862   -1.7450    8.3028 C.1       1 <0>         0.2108
     13 S2          2.5384   -1.3854    9.7736 S.2       1 <0>         0.0289
     14 C11         0.7078   -0.4878   -1.2383 C.2       1 <0>         0.4989
     15 O1          1.8909   -0.7516   -1.1987 O.2       1 <0>        -0.5011
     16 N2          0.0259   -0.6217   -2.3931 N.am      1 <0>        -0.6613
     17 C12         0.6990   -0.9709   -3.5645 C.ar      1 <0>         0.1716
     18 C13         1.7763   -1.8495   -3.5101 C.ar      1 <0>        -0.0923
     19 C14         2.4429   -2.1963   -4.6638 C.ar      1 <0>        -0.0476
     20 C15         2.0360   -1.6643   -5.8909 C.ar      1 <0>         0.0128
     21 C16         0.9534   -0.7820   -5.9416 C.ar      1 <0>        -0.1194
     22 C17         0.2878   -0.4441   -4.7842 C.ar      1 <0>        -0.0951
     23 C18         0.5109   -0.2059   -7.2620 C.3       1 <0>         0.5058
     24 F1         -0.5824    0.6427   -7.0576 F         1 <0>        -0.1696
     25 F2          1.5637    0.5187   -7.8309 F         1 <0>        -0.1688
     26 F3          0.1405   -1.2443   -8.1232 F         1 <0>        -0.1690
     27 C19         2.7271   -2.0223   -7.0929 C.1       1 <0>         0.2298
     28 N3          3.2753   -2.3063   -8.0464 N.1       1 <0>        -0.3736
     29 O2         -1.3366   -0.5153    0.0141 O.3       1 <0>        -0.5346
     30 H1          0.9874    1.9043    0.0081 H         1 <0>         0.0860
     31 H2         -0.5632    1.8785   -0.8655 H         1 <0>         0.0776
     32 H3         -0.5440    1.8645    0.9143 H         1 <0>         0.0930
     33 H4          0.6922   -1.6028    1.2789 H         1 <0>         0.0983
     34 H5          1.7889   -0.2038    1.1885 H         1 <0>         0.1156
     35 H6          2.2522   -1.5857    2.7460 H         1 <0>         0.1334
     36 H7          3.5873   -2.5164    4.5628 H         1 <0>         0.1394
     37 H8          1.1097   -0.4140    7.4225 H         1 <0>         0.1320
     38 H9         -0.2014    0.5086    5.5842 H         1 <0>         0.1383
     39 H10        -0.9329   -0.4753   -2.4099 H         1 <0>         0.4252
     40 H11         2.0903   -2.2598   -2.5617 H         1 <0>         0.1594
     41 H12         3.2793   -2.8781   -4.6208 H         1 <0>         0.1529
     42 H13        -0.5516    0.2343   -4.8232 H         1 <0>         0.1560
     43 H14        -1.3925   -1.4807    0.0071 H         1 <0>         0.3869
@<TRIPOS>BOND
     1    1    2 1
     2    1   30 1
     3    1   31 1
     4    1   32 1
     5    2    3 1
     6    2   14 1
     7    2   29 1
     8    3    4 1
     9    3   33 1
    10    3   34 1
    11    4    5 1
    12    5   10 ar
    13    5    6 ar
    14    6    7 ar
    15    6   35 1
    16    7    8 ar
    17    7   36 1
    18    8    9 ar
    19    8   11 1
    20    9   10 ar
    21    9   37 1
    22   10   38 1
    23   11   12 2
    24   12   13 2
    25   14   15 2
    26   14   16 am
    27   16   17 1
    28   16   39 1
    29   17   22 ar
    30   17   18 ar
    31   18   19 ar
    32   18   40 1
    33   19   20 ar
    34   19   41 1
    35   20   21 ar
    36   20   27 1
    37   21   22 ar
    38   21   23 1
    39   22   42 1
    40   23   24 1
    41   23   25 1
    42   23   26 1
    43   27   28 3
    44   29   43 1
@<TRIPOS>MOLECULE
CHEMBL421986__1
   43    44     0     0     0
SMALL
USER_CHARGES

@<TRIPOS>ATOM
      1 C1         -0.0295    1.5317    0.0187 C.3       1 <0>        -0.1467
      2 C2         -0.0000    0.0020    0.0023 C.3       1 <0>         0.1454
      3 C3          0.7447   -0.5070    1.2381 C.3       1 <0>        -0.1407
      4 S1          2.3930    0.2476    1.3042 S.3       1 <0>        -0.0544
      5 C4          3.1138   -0.4297    2.7624 C.ar      1 <0>        -0.0952
      6 C5          2.3859   -1.3396    3.5407 C.ar      1 <0>        -0.1159
      7 C6          2.9334   -1.8670    4.6673 C.ar      1 <0>        -0.0702
      8 C7          4.2462   -1.4938    5.0541 C.ar      1 <0>         0.1166
      9 C8          4.9754   -0.5723    4.2594 C.ar      1 <0>        -0.1364
     10 C9          4.4133   -0.0595    3.1333 C.ar      1 <0>        -0.0729
     11 N1          4.7879   -2.0026    6.1512 N.2       1 <0>        -0.4500
     12 C10         5.9450   -1.6711    6.4885 C.1       1 <0>         0.2110
     13 S2          7.3831   -1.2591    6.9077 S.2       1 <0>         0.0285
     14 C11        -1.4108   -0.5278    0.0124 C.2       1 <0>         0.4988
     15 O1         -1.9347   -0.8376    1.0614 O.2       1 <0>        -0.5012
     16 N2         -2.0902   -0.6573   -1.1443 N.am      1 <0>        -0.6610
     17 C12        -3.3595   -1.2371   -1.1468 C.ar      1 <0>         0.1709
     18 C13        -4.2221   -1.0235   -0.0763 C.ar      1 <0>        -0.0920
     19 C14        -5.4751   -1.5939   -0.0753 C.ar      1 <0>        -0.0476
     20 C15        -5.8803   -2.3886   -1.1517 C.ar      1 <0>         0.0128
     21 C16        -5.0111   -2.6010   -2.2252 C.ar      1 <0>        -0.1198
     22 C17        -3.7613   -2.0225   -2.2220 C.ar      1 <0>        -0.0954
     23 C18        -5.4433   -3.4568   -3.3879 C.3       1 <0>         0.5058
     24 F1         -4.4107   -3.5200   -4.3297 F         1 <0>        -0.1697
     25 F2         -5.7393   -4.7463   -2.9331 F         1 <0>        -0.1690
     26 F3         -6.5812   -2.8986   -3.9803 F         1 <0>        -0.1689
     27 C19        -7.1826   -2.9840   -1.1540 C.1       1 <0>         0.2297
     28 N3         -8.2158   -3.4563   -1.1558 N.1       1 <0>        -0.3736
     29 O2          0.6697   -0.4489   -1.1767 O.3       1 <0>        -0.5344
     30 H1          0.9909    1.9149    0.0114 H         1 <0>         0.0930
     31 H2         -0.5601    1.8943   -0.8617 H         1 <0>         0.0774
     32 H3         -0.5404    1.8756    0.9181 H         1 <0>         0.0863
     33 H4          0.1862   -0.2389    2.1350 H         1 <0>         0.1155
     34 H5          0.8434   -1.5910    1.1820 H         1 <0>         0.0981
     35 H6          1.3866   -1.6225    3.2446 H         1 <0>         0.1334
     36 H7          2.3706   -2.5677    5.2663 H         1 <0>         0.1394
     37 H8          5.9755   -0.2824    4.5461 H         1 <0>         0.1321
     38 H9          4.9684    0.6389    2.5246 H         1 <0>         0.1383
     39 H10        -1.6970   -0.3474   -1.9751 H         1 <0>         0.4253
     40 H11        -3.9082   -0.4097    0.7550 H         1 <0>         0.1604
     41 H12        -6.1441   -1.4279    0.7561 H         1 <0>         0.1531
     42 H13        -3.0908   -2.1826   -3.0533 H         1 <0>         0.1559
     43 H14         0.7258   -1.4112   -1.2536 H         1 <0>         0.3872
@<TRIPOS>BOND
     1    1    2 1
     2    1   30 1
     3    1   31 1
     4    1   32 1
     5    2    3 1
     6    2   14 1
     7    2   29 1
     8    3    4 1
     9    3   33 1
    10    3   34 1
    11    4    5 1
    12    5   10 ar
    13    5    6 ar
    14    6    7 ar
    15    6   35 1
    16    7    8 ar
    17    7   36 1
    18    8    9 ar
    19    8   11 1
    20    9   10 ar
    21    9   37 1
    22   10   38 1
    23   11   12 2
    24   12   13 2
    25   14   15 2
    26   14   16 am
    27   16   17 1
    28   16   39 1
    29   17   22 ar
    30   17   18 ar
    31   18   19 ar
    32   18   40 1
    33   19   20 ar
    34   19   41 1
    35   20   21 ar
    36   20   27 1
    37   21   22 ar
    38   21   23 1
    39   22   42 1
    40   23   24 1
    41   23   25 1
    42   23   26 1
    43   27   28 3
    44   29   43 1
@<TRIPOS>MOLECULE
CHEMBL35525
   51    55     0     0     0
SMALL
USER_CHARGES

@<TRIPOS>ATOM
      1 C1         -0.4480    1.1834    0.4829 C.3       1 <0>        -0.1757
      2 C2         -0.6426   -0.3317    0.3965 C.3       1 <0>        -0.0945
      3 H1         -0.0464   -0.7283   -0.4253 H         1 <0>         0.1171
      4 C3         -2.0995   -0.6384    0.1543 C.ar      1 <0>        -0.1229
      5 C4         -2.7704   -1.6211    0.8680 C.ar      1 <0>         0.2210
      6 C5         -4.1154   -1.8802    0.6044 C.ar      1 <0>        -0.1732
      7 C6         -4.7873   -1.1650   -0.3642 C.ar      1 <0>        -0.0576
      8 C7         -4.1154   -0.1842   -1.0801 C.ar      1 <0>        -0.0771
      9 C8         -2.7739    0.0910   -0.8046 C.ar      1 <0>        -0.0675
     10 C9         -2.0861    1.2101   -1.5418 C.3       1 <0>         0.1735
     11 H2         -1.0214    0.9896   -1.6184 H         1 <0>         0.1460
     12 O1         -2.6320    1.3554   -2.8515 O.3       1 <0>        -0.2997
     13 C10        -3.9810    1.3766   -2.9954 C.ar      1 <0>         0.1256
     14 C11        -4.7817    0.6070   -2.1408 C.ar      1 <0>        -0.0995
     15 C12        -6.1608    0.5986   -2.2958 C.ar      1 <0>        -0.0814
     16 C13        -6.7419    1.3653   -3.2885 C.ar      1 <0>        -0.1416
     17 C14        -5.9534    2.1382   -4.1218 C.ar      1 <0>        -0.0892
     18 C15        -4.5773    2.1451   -3.9796 C.ar      1 <0>        -0.1379
     19 C16        -2.2739    2.4968   -0.7800 C.ar      1 <0>        -0.0828
     20 C17        -1.5957    3.6366   -1.1708 C.ar      1 <0>        -0.1100
     21 C18        -1.7670    4.8174   -0.4730 C.ar      1 <0>        -0.0883
     22 C19        -2.6162    4.8599    0.6167 C.ar      1 <0>        -0.1467
     23 C20        -3.2957    3.7193    1.0089 C.ar      1 <0>         0.0977
     24 C21        -3.1280    2.5384    0.3053 C.ar      1 <0>        -0.1352
     25 F1         -4.1257    3.7596    2.0741 F         1 <0>        -0.1378
     26 N1         -2.1433   -2.3665    1.8709 N.pl3     1 <0>        -0.7320
     27 C22        -0.6774   -2.3865    1.9610 C.3       1 <0>         0.1344
     28 C23        -0.2013   -0.9709    1.6929 C.2       1 <0>         0.3653
     29 O2          0.4993   -0.3814    2.4803 O.2       1 <0>        -0.4255
     30 C24        -0.1021   -3.3392    0.9111 C.3       1 <0>        -0.1590
     31 C25        -0.2456   -2.8269    3.3612 C.3       1 <0>        -0.1488
     32 H3          0.4303    1.4029    1.0898 H         1 <0>         0.0758
     33 H4         -0.3081    1.5894   -0.5190 H         1 <0>         0.0793
     34 H5         -1.3277    1.6373    0.9392 H         1 <0>         0.0787
     35 H6         -4.6339   -2.6456    1.1627 H         1 <0>         0.1303
     36 H7         -5.8292   -1.3669   -0.5645 H         1 <0>         0.1321
     37 H8         -6.7767   -0.0034   -1.6441 H         1 <0>         0.1274
     38 H9         -7.8147    1.3610   -3.4137 H         1 <0>         0.1268
     39 H10        -6.4156    2.7400   -4.8903 H         1 <0>         0.1296
     40 H11        -3.9692    2.7512   -4.6348 H         1 <0>         0.1322
     41 H12        -0.9314    3.6041   -2.0217 H         1 <0>         0.1351
     42 H13        -1.2367    5.7071   -0.7792 H         1 <0>         0.1371
     43 H14        -2.7493    5.7825    1.1622 H         1 <0>         0.1370
     44 H15        -3.6610    1.6491    0.6077 H         1 <0>         0.1378
     45 H16        -2.6757   -2.8696    2.5068 H         1 <0>         0.4090
     46 H17        -0.3959   -3.0040   -0.0836 H         1 <0>         0.0672
     47 H18         0.9853   -3.3477    0.9852 H         1 <0>         0.0719
     48 H19        -0.4859   -4.3447    1.0838 H         1 <0>         0.0754
     49 H20        -0.6311   -3.8263    3.5627 H         1 <0>         0.0718
     50 H21         0.8428   -2.8388    3.4188 H         1 <0>         0.0804
     51 H22        -0.6410   -2.1293    4.0995 H         1 <0>         0.0685
@<TRIPOS>BOND
     1    1    2 1
     2    1   32 1
     3    1   33 1
     4    1   34 1
     5    2    3 1
     6    2   28 1
     7    2    4 1
     8    4    9 ar
     9    4    5 ar
    10    5    6 ar
    11    5   26 1
    12    6    7 ar
    13    6   35 1
    14    7    8 ar
    15    7   36 1
    16    8   14 1
    17    8    9 ar
    18    9   10 1
    19   10   11 1
    20   10   12 1
    21   10   19 1
    22   12   13 1
    23   13   18 ar
    24   13   14 ar
    25   14   15 ar
    26   15   16 ar
    27   15   37 1
    28   16   17 ar
    29   16   38 1
    30   17   18 ar
    31   17   39 1
    32   18   40 1
    33   19   24 ar
    34   19   20 ar
    35   20   21 ar
    36   20   41 1
    37   21   22 ar
    38   21   42 1
    39   22   23 ar
    40   22   43 1
    41   23   24 ar
    42   23   25 1
    43   24   44 1
    44   26   27 1
    45   26   45 1
    46   27   28 1
    47   27   30 1
    48   27   31 1
    49   28   29 2
    50   30   46 1
    51   30   47 1
    52   30   48 1
    53   31   49 1
    54   31   50 1
    55   31   51 1
@<TRIPOS>MOLECULE
CHEMBL443270
   71    74     0     0     0
SMALL
USER_CHARGES

@<TRIPOS>ATOM
      1 C1          0.0779    1.2848    2.5993 C.3       1 <0>        -0.1663
      2 C2         -0.3962    1.0850    1.1583 C.3       1 <0>         0.1109
      3 N1         -1.7682    0.5713    1.1624 N.am      1 <0>        -0.6137
      4 C3         -2.8990    1.5026    1.1460 C.3       1 <0>         0.1004
      5 C4         -3.2087    1.9033   -0.2978 C.3       1 <0>        -0.1740
      6 C5         -1.9900   -0.7579    1.1813 C.2       1 <0>         0.5273
      7 O1         -1.0573   -1.5271    1.2778 O.2       1 <0>        -0.5349
      8 C6         -3.3971   -1.2884    1.0824 C.3       1 <0>        -0.1043
      9 C7         -3.4063   -2.6505    0.3450 C.3       1 <0>        -0.1101
     10 C8         -3.8904   -3.7045    1.3780 C.3       1 <0>        -0.1126
     11 C9         -3.5395   -3.0527    2.7197 C.3       1 <0>        -0.0798
     12 C10        -3.9518   -1.5781    2.4744 C.3       1 <0>        -0.0510
     13 C11        -3.3596   -0.7658    3.6122 C.3       1 <0>        -0.1080
     14 C12        -4.0545   -1.2302    4.8989 C.3       1 <0>        -0.1221
     15 C13        -3.8899   -2.7300    5.1394 C.3       1 <0>        -0.0605
     16 C14        -4.3164   -3.5603    3.9230 C.3       1 <0>        -0.0732
     17 C15        -3.9628   -5.0326    4.1444 C.3       1 <0>        -0.1116
     18 C16        -3.9956   -5.3809    5.6268 C.3       1 <0>        -0.1251
     19 C17        -5.0977   -4.5885    6.3282 C.3       1 <0>         0.1570
     20 H1         -6.0388   -4.7247    5.7954 H         1 <0>         0.0816
     21 C18        -4.7383   -3.1109    6.3557 C.3       1 <0>        -0.0667
     22 C19        -5.9698   -2.2340    6.4204 C.3       1 <0>        -0.1220
     23 C20        -6.7300   -2.3704    7.7332 C.3       1 <0>        -0.1173
     24 C21        -7.3319   -3.7692    7.8624 C.3       1 <0>        -0.1388
     25 C22        -6.2910   -4.7023    8.4415 C.2       1 <0>         0.5144
     26 O2         -6.4101   -5.1092    9.5778 O.2       1 <0>        -0.5480
     27 N2         -5.2381   -5.0811    7.7040 N.am      1 <0>        -0.6052
     28 C23        -4.2314   -5.9835    8.2684 C.3       1 <0>         0.0746
     29 C24        -3.9126   -2.8436    7.6157 C.3       1 <0>        -0.1436
     30 C25        -5.4769   -1.4560    2.4648 C.3       1 <0>        -0.1468
     31 H2          1.0987    1.6670    2.5962 H         1 <0>         0.0648
     32 H3         -0.5757    1.9983    3.1011 H         1 <0>         0.0541
     33 H4          0.0483    0.3316    3.1270 H         1 <0>         0.0591
     34 H5         -0.3666    2.0382    0.6306 H         1 <0>         0.0746
     35 H6          0.2574    0.3715    0.6565 H         1 <0>         0.0812
     36 H7         -3.7728    1.0208    1.5847 H         1 <0>         0.0845
     37 H8         -2.6459    2.3916    1.7235 H         1 <0>         0.0778
     38 H9         -2.3090    2.3044   -0.7645 H         1 <0>         0.0597
     39 H10        -3.5469    1.0285   -0.8531 H         1 <0>         0.0580
     40 H11        -3.9907    2.6626   -0.3043 H         1 <0>         0.0686
     41 H12        -4.0344   -0.5724    0.5635 H         1 <0>         0.0919
     42 H13        -4.0924   -2.6133   -0.5011 H         1 <0>         0.0669
     43 H14        -2.4015   -2.8970    0.0019 H         1 <0>         0.0777
     44 H15        -4.9659   -3.8610    1.2945 H         1 <0>         0.0681
     45 H16        -3.3517   -4.6437    1.2525 H         1 <0>         0.0673
     46 H17        -2.4680   -3.1277    2.9055 H         1 <0>         0.0818
     47 H18        -2.2873   -0.9485    3.6813 H         1 <0>         0.0651
     48 H19        -3.5479    0.2954    3.4495 H         1 <0>         0.0630
     49 H20        -3.6307   -0.6884    5.7445 H         1 <0>         0.0611
     50 H21        -5.1173   -0.9981    4.8299 H         1 <0>         0.0792
     51 H22        -2.8430   -2.9426    5.3560 H         1 <0>         0.0716
     52 H23        -5.3867   -3.4464    3.7508 H         1 <0>         0.0805
     53 H24        -4.6808   -5.6575    3.6133 H         1 <0>         0.0648
     54 H25        -2.9636   -5.2241    3.7531 H         1 <0>         0.0695
     55 H26        -4.1874   -6.4475    5.7433 H         1 <0>         0.0724
     56 H27        -3.0331   -5.1374    6.0767 H         1 <0>         0.0711
     57 H28        -5.6669   -1.1943    6.2968 H         1 <0>         0.0823
     58 H29        -6.6353   -2.5029    5.6001 H         1 <0>         0.0642
     59 H30        -6.0467   -2.1949    8.5642 H         1 <0>         0.0711
     60 H31        -7.5299   -1.6306    7.7640 H         1 <0>         0.0762
     61 H32        -8.1980   -3.7339    8.5232 H         1 <0>         0.0960
     62 H33        -7.6361   -4.1276    6.8790 H         1 <0>         0.0878
     63 H34        -3.4494   -5.3984    8.7523 H         1 <0>         0.0540
     64 H35        -4.7013   -6.6389    9.0018 H         1 <0>         0.0751
     65 H36        -3.7946   -6.5847    7.4710 H         1 <0>         0.0766
     66 H37        -3.6477   -1.7872    7.6592 H         1 <0>         0.0540
     67 H38        -4.4977   -3.1080    8.4965 H         1 <0>         0.0600
     68 H39        -3.0040   -3.4452    7.5891 H         1 <0>         0.0524
     69 H40        -5.8926   -2.1533    1.7375 H         1 <0>         0.0609
     70 H41        -5.8663   -1.6895    3.4557 H         1 <0>         0.0706
     71 H42        -5.7582   -0.4382    2.1944 H         1 <0>         0.0535
@<TRIPOS>BOND
     1    1    2 1
     2    1   31 1
     3    1   32 1
     4    1   33 1
     5    2    3 1
     6    2   34 1
     7    2   35 1
     8    3    4 1
     9    3    6 am
    10    4    5 1
    11    4   36 1
    12    4   37 1
    13    5   38 1
    14    5   39 1
    15    5   40 1
    16    6    7 2
    17    6    8 1
    18    8   12 1
    19    8    9 1
    20    8   41 1
    21    9   10 1
    22    9   42 1
    23    9   43 1
    24   10   11 1
    25   10   44 1
    26   10   45 1
    27   11   16 1
    28   11   12 1
    29   11   46 1
    30   12   13 1
    31   12   30 1
    32   13   14 1
    33   13   47 1
    34   13   48 1
    35   14   15 1
    36   14   49 1
    37   14   50 1
    38   15   21 1
    39   15   16 1
    40   15   51 1
    41   16   17 1
    42   16   52 1
    43   17   18 1
    44   17   53 1
    45   17   54 1
    46   18   19 1
    47   18   55 1
    48   18   56 1
    49   19   20 1
    50   19   27 1
    51   19   21 1
    52   21   22 1
    53   21   29 1
    54   22   23 1
    55   22   57 1
    56   22   58 1
    57   23   24 1
    58   23   59 1
    59   23   60 1
    60   24   25 1
    61   24   61 1
    62   24   62 1
    63   25   26 2
    64   25   27 am
    65   27   28 1
    66   28   63 1
    67   28   64 1
    68   28   65 1
    69   29   66 1
    70   29   67 1
    71   29   68 1
    72   30   69 1
    73   30   70 1
    74   30   71 1
@<TRIPOS>MOLECULE
CHEMBL557116
   55    58     0     0     0
SMALL
USER_CHARGES

@<TRIPOS>ATOM
      1 C1         -0.0184    1.5028    0.0103 C.3       1 <0>        -0.1221
      2 C2          0.0021   -0.0041    0.0020 C.2       1 <0>        -0.1412
      3 C3          0.5687   -0.6460   -0.9894 C.2       1 <0>        -0.1660
      4 C4          1.2503   -0.0225   -2.1942 C.3       1 <0>        -0.0798
      5 C5          1.7461   -1.1909   -3.0558 C.3       1 <0>        -0.0673
      6 H1          0.9729   -1.4477   -3.7799 H         1 <0>         0.0762
      7 C6          3.0241   -0.8730   -3.7948 C.3       1 <0>        -0.0714
      8 H2          3.2607   -1.7044   -4.4589 H         1 <0>         0.0766
      9 C7          2.8493    0.3941   -4.6367 C.3       1 <0>        -0.1230
     10 C8          4.1219    0.6383   -5.4491 C.3       1 <0>        -0.1273
     11 C9          5.3129    0.8057   -4.5113 C.3       1 <0>         0.1544
     12 H3          6.2146    0.9385   -5.1091 H         1 <0>         0.0720
     13 C10         5.4829   -0.4330   -3.6332 C.3       1 <0>        -0.0470
     14 C11         4.1940   -0.6630   -2.8360 C.3       1 <0>        -0.0630
     15 H4          3.9898    0.1916   -2.1910 H         1 <0>         0.0758
     16 C12         4.3674   -1.9299   -1.9913 C.3       1 <0>        -0.1158
     17 C13         3.1084   -2.1362   -1.1535 C.3       1 <0>        -0.1104
     18 C14         1.9092   -2.3590   -2.0661 C.3       1 <0>        -0.0404
     19 C15         0.6727   -2.1546   -1.1455 C.3       1 <0>         0.1349
     20 H5          0.8345   -2.6284   -0.1773 H         1 <0>         0.0580
     21 O1         -0.5030   -2.6756   -1.7688 O.3       1 <0>        -0.5530
     22 C16         1.9232   -3.7194   -2.7661 C.3       1 <0>        -0.1257
     23 C17         6.6137   -0.1921   -2.6601 C.2       1 <0>        -0.0828
     24 C18         6.7695    1.0235   -2.1362 C.2       1 <0>        -0.1968
     25 C19         5.8283    2.0936   -2.5135 C.2       1 <0>         0.5463
     26 O2          5.6695    3.0568   -1.7882 O.2       1 <0>        -0.5388
     27 N1          5.1353    1.9809   -3.6598 N.am      1 <0>        -0.6049
     28 C20         4.2191    3.0506   -4.0631 C.3       1 <0>         0.0796
     29 C21         5.7908   -1.6477   -4.5111 C.3       1 <0>        -0.1425
     30 H6          1.0042    1.8801    0.0026 H         1 <0>         0.0656
     31 H7         -0.5455    1.8639   -0.8728 H         1 <0>         0.0651
     32 H8         -0.5286    1.8543    0.9071 H         1 <0>         0.0615
     33 H9         -0.4505   -0.5547    0.8134 H         1 <0>         0.1111
     34 H10         0.5387    0.5823   -2.7562 H         1 <0>         0.0700
     35 H11         2.0926    0.5903   -1.8730 H         1 <0>         0.0725
     36 H12         2.0040    0.2680   -5.3133 H         1 <0>         0.0672
     37 H13         2.6674    1.2451   -3.9804 H         1 <0>         0.0721
     38 H14         4.2980   -0.2105   -6.1099 H         1 <0>         0.0838
     39 H15         4.0021    1.5419   -6.0468 H         1 <0>         0.0750
     40 H16         4.5155   -2.7885   -2.6463 H         1 <0>         0.0718
     41 H17         5.2294   -1.8158   -1.3340 H         1 <0>         0.0641
     42 H18         3.2412   -3.0090   -0.5143 H         1 <0>         0.0634
     43 H19         2.9434   -1.2571   -0.5305 H         1 <0>         0.0669
     44 H20        -1.3149   -2.5239   -1.2659 H         1 <0>         0.3754
     45 H21         2.7540   -3.7569   -3.4707 H         1 <0>         0.0563
     46 H22         2.0405   -4.5088   -2.0237 H         1 <0>         0.0537
     47 H23         0.9851   -3.8616   -3.3026 H         1 <0>         0.0665
     48 H24         7.2859   -0.9939   -2.3925 H         1 <0>         0.1320
     49 H25         7.5745    1.2219   -1.4440 H         1 <0>         0.1438
     50 H26         3.2234    2.8432   -3.6710 H         1 <0>         0.0585
     51 H27         4.5746    4.0020   -3.6672 H         1 <0>         0.0761
     52 H28         4.1776    3.1025   -5.1511 H         1 <0>         0.0726
     53 H29         6.7109   -1.4698   -5.0677 H         1 <0>         0.0616
     54 H30         5.9114   -2.5295   -3.8819 H         1 <0>         0.0694
     55 H31         4.9693   -1.8091   -5.2092 H         1 <0>         0.0694
@<TRIPOS>BOND
     1    1    2 1
     2    1   30 1
     3    1   31 1
     4    1   32 1
     5    2    3 2
     6    2   33 1
     7    3   19 1
     8    3    4 1
     9    4    5 1
    10    4   34 1
    11    4   35 1
    12    5    6 1
    13    5   18 1
    14    5    7 1
    15    7    8 1
    16    7   14 1
    17    7    9 1
    18    9   10 1
    19    9   36 1
    20    9   37 1
    21   10   11 1
    22   10   38 1
    23   10   39 1
    24   11   12 1
    25   11   27 1
    26   11   13 1
    27   13   14 1
    28   13   23 1
    29   13   29 1
    30   14   15 1
    31   14   16 1
    32   16   17 1
    33   16   40 1
    34   16   41 1
    35   17   18 1
    36   17   42 1
    37   17   43 1
    38   18   19 1
    39   18   22 1
    40   19   20 1
    41   19   21 1
    42   21   44 1
    43   22   45 1
    44   22   46 1
    45   22   47 1
    46   23   24 2
    47   23   48 1
    48   24   25 1
    49   24   49 1
    50   25   26 2
    51   25   27 am
    52   27   28 1
    53   28   50 1
    54   28   51 1
    55   28   52 1
    56   29   53 1
    57   29   54 1
    58   29   55 1
@<TRIPOS>MOLECULE
CHEMBL480982
   38    39     0     0     0
SMALL
NO_CHARGES

@<TRIPOS>ATOM
      1 C1          0.6950   -0.4950    1.0679 C.3       1 <0>        -0.1768
      2 C2          0.0266   -0.3206   -0.2973 C.3       1 <0>        -0.0085
      3 N1         -1.3696   -0.7706   -0.2199 N.4       1 <0>        -0.2924
      4 C3         -2.0496   -0.4773   -1.4886 C.3       1 <0>        -0.0080
      5 C4         -3.5371   -0.8110   -1.3590 C.3       1 <0>        -0.1735
      6 C5         -1.4030   -2.1476    0.0192 C.ar      1 <0>        -0.1787
      7 C6         -0.8132   -3.0170   -0.8827 C.ar      1 <0>        -0.1050
      8 C7         -0.8412   -4.3759   -0.6552 C.ar      1 <0>        -0.0591
      9 C8         -1.4690   -4.8769    0.4932 C.ar      1 <0>        -0.0851
     10 C9         -2.0632   -3.9893    1.4005 C.ar      1 <0>        -0.1210
     11 C10        -2.0205   -2.6332    1.1594 C.ar      1 <0>        -0.0965
     12 C11        -1.5043   -6.3207    0.7437 C.2       1 <0>        -0.0439
     13 C12        -0.4117   -7.1030    0.4279 C.2       1 <0>        -0.3331
     14 C13        -0.3267   -8.5727    0.4482 C.2       1 <0>         0.1214
     15 N2          0.8700   -8.9024    0.0848 N.2       1 <0>        -0.3251
     16 O1          1.6514   -7.7628   -0.1957 O.3       1 <0>        -0.1783
     17 C14         0.9205   -6.6479   -0.0087 C.2       1 <0>         0.4519
     18 O2          1.2862   -5.4979   -0.1655 O.2       1 <0>        -0.4913
     19 C15        -1.4346   -9.5221    0.8254 C.3       1 <0>        -0.0789
     20 H1          1.7517   -0.2389    0.9905 H         1 <0>         0.0917
     21 H2          0.2145    0.1605    1.7941 H         1 <0>         0.0681
     22 H3          0.5951   -1.5310    1.3917 H         1 <0>         0.0887
     23 H4          0.0542    0.7307   -0.5837 H         1 <0>         0.1120
     24 H5          0.5588   -0.9139   -1.0409 H         1 <0>         0.1200
     25 H6         -1.9338    0.5800   -1.7270 H         1 <0>         0.1120
     26 H7         -1.6102   -1.0793   -2.2840 H         1 <0>         0.1196
     27 H8         -3.6573   -1.8844   -1.2124 H         1 <0>         0.0858
     28 H9         -3.9559   -0.2785   -0.5051 H         1 <0>         0.0687
     29 H10        -4.0580   -0.5078   -2.2673 H         1 <0>         0.0905
     30 H11        -0.3302   -2.6291   -1.7674 H         1 <0>         0.1063
     31 H12        -0.3810   -5.0526   -1.3600 H         1 <0>         0.1177
     32 H13        -2.5495   -4.3667    2.2879 H         1 <0>         0.1169
     33 H14        -2.4738   -1.9473    1.8598 H         1 <0>         0.1099
     34 H15        -2.3852   -6.7725    1.1753 H         1 <0>         0.1192
     35 H16        -2.0087   -9.7823   -0.0639 H         1 <0>         0.0850
     36 H17        -1.0066  -10.4260    1.2589 H         1 <0>         0.0789
     37 H18        -2.0898   -9.0447    1.5541 H         1 <0>         0.0814
     38 H19        -1.8376   -0.2872    0.5320 H         1 <0>         0.4097
@<TRIPOS>BOND
     1    1    2 1
     2    1   20 1
     3    1   21 1
     4    1   22 1
     5    2    3 1
     6    2   23 1
     7    2   24 1
     8    3    4 1
     9    3    6 1
    10    3   38 1
    11    4    5 1
    12    4   25 1
    13    4   26 1
    14    5   27 1
    15    5   28 1
    16    5   29 1
    17    6   11 ar
    18    6    7 ar
    19    7    8 ar
    20    7   30 1
    21    8    9 ar
    22    8   31 1
    23    9   10 ar
    24    9   12 1
    25   10   11 ar
    26   10   32 1
    27   11   33 1
    28   12   13 2
    29   12   34 1
    30   13   17 1
    31   13   14 1
    32   14   15 2
    33   14   19 1
    34   15   16 1
    35   16   17 1
    36   17   18 2
    37   19   35 1
    38   19   36 1
    39   19   37 1
@<TRIPOS>MOLECULE
CHEMBL480982__1
   37    38     0     0     0
SMALL
USER_CHARGES

@<TRIPOS>ATOM
      1 C1         -0.1906    1.4100    0.1278 C.3       1 <0>        -0.1730
      2 C2          0.1622   -0.0687   -0.0457 C.3       1 <0>         0.1116
      3 N1          0.8226   -0.2647   -1.3386 N.pl3     1 <0>        -0.6137
      4 C3          2.2802   -0.1577   -1.4402 C.3       1 <0>         0.1119
      5 C4          2.9104   -1.5308   -1.1990 C.3       1 <0>        -0.1745
      6 C5          0.0673   -0.5519   -2.4674 C.ar      1 <0>         0.2607
      7 C6         -1.3199   -0.6475   -2.3689 C.ar      1 <0>        -0.2181
      8 C7         -2.0672   -0.9300   -3.4751 C.ar      1 <0>        -0.0177
      9 C8         -1.4363   -1.1240   -4.7145 C.ar      1 <0>        -0.1994
     10 C9         -0.0387   -1.0260   -4.8080 C.ar      1 <0>         0.0182
     11 C10         0.6984   -0.7379   -3.6964 C.ar      1 <0>        -0.2130
     12 C11        -2.2313   -1.4272   -5.9026 C.2       1 <0>         0.1354
     13 C12        -1.7570   -2.3264   -6.8416 C.2       1 <0>        -0.3123
     14 C13        -2.3260   -2.6195   -8.1663 C.2       1 <0>         0.1479
     15 N2         -1.5810   -3.5185   -8.7243 N.2       1 <0>        -0.2751
     16 O1         -0.5124   -3.8893   -7.8824 O.3       1 <0>        -0.1650
     17 C14        -0.5709   -3.1910   -6.7331 C.2       1 <0>         0.4814
     18 O2          0.1994   -3.2621   -5.7933 O.2       1 <0>        -0.4392
     19 C15        -3.5555   -1.9868   -8.7656 C.3       1 <0>        -0.0907
     20 H1          0.7202    2.0076    0.0908 H         1 <0>         0.0574
     21 H2         -0.8613    1.7199   -0.6735 H         1 <0>         0.0599
     22 H3         -0.6820    1.5558    1.0897 H         1 <0>         0.0673
     23 H4          0.8329   -0.3786    0.7557 H         1 <0>         0.0777
     24 H5         -0.7487   -0.6663   -0.0087 H         1 <0>         0.0794
     25 H6          2.5500    0.1962   -2.4353 H         1 <0>         0.0796
     26 H7          2.6458    0.5463   -0.6927 H         1 <0>         0.0777
     27 H8          3.9949   -1.4512   -1.2746 H         1 <0>         0.0676
     28 H9          2.6406   -1.8847   -0.2040 H         1 <0>         0.0571
     29 H10         2.5448   -2.2348   -1.9465 H         1 <0>         0.0617
     30 H11        -1.8041   -0.4981   -1.4151 H         1 <0>         0.1288
     31 H12        -3.1418   -1.0045   -3.3975 H         1 <0>         0.1285
     32 H13         0.4517   -1.1747   -5.7587 H         1 <0>         0.1228
     33 H14         1.7731   -0.6584   -3.7679 H         1 <0>         0.1275
     34 H15        -3.1890   -0.9497   -6.0478 H         1 <0>         0.1498
     35 H16        -3.2700   -1.0950   -9.3235 H         1 <0>         0.0985
     36 H17        -4.0386   -2.6964   -9.4372 H         1 <0>         0.0922
     37 H18        -4.2471   -1.7114   -7.9694 H         1 <0>         0.0912
@<TRIPOS>BOND
     1    1    2 1
     2    1   20 1
     3    1   21 1
     4    1   22 1
     5    2    3 1
     6    2   23 1
     7    2   24 1
     8    3    4 1
     9    3    6 1
    10    4    5 1
    11    4   25 1
    12    4   26 1
    13    5   27 1
    14    5   28 1
    15    5   29 1
    16    6   11 ar
    17    6    7 ar
    18    7    8 ar
    19    7   30 1
    20    8    9 ar
    21    8   31 1
    22    9   10 ar
    23    9   12 1
    24   10   11 ar
    25   10   32 1
    26   11   33 1
    27   12   13 2
    28   12   34 1
    29   13   17 1
    30   13   14 1
    31   14   15 2
    32   14   19 1
    33   15   16 1
    34   16   17 1
    35   17   18 2
    36   19   35 1
    37   19   36 1
    38   19   37 1
@<TRIPOS>MOLECULE
CHEMBL74606
   56    60     0     0     0
SMALL
USER_CHARGES

@<TRIPOS>ATOM
      1 C1         -0.0187    1.5258    0.0104 C.3       1 <0>        -0.1497
      2 C2          0.0021   -0.0041    0.0020 C.3       1 <0>        -0.0137
      3 C3         -1.4457   -0.5000    0.0548 C.3       1 <0>        -0.1034
      4 C4         -2.0863   -0.0569    1.3717 C.3       1 <0>        -0.1161
      5 C5         -1.3469   -0.6987    2.5468 C.3       1 <0>         0.1087
      6 H1         -1.3490   -1.7824    2.4292 H         1 <0>         0.0546
      7 C6          0.0979   -0.1915    2.5792 C.3       1 <0>        -0.1173
      8 C7          0.7326   -0.4686    1.2267 C.2       1 <0>        -0.1045
      9 C8          1.8713   -1.0959    1.1971 C.2       1 <0>        -0.1545
     10 C9          2.5831   -1.4393   -0.0784 C.3       1 <0>        -0.0846
     11 C10         2.1782   -0.4407   -1.1700 C.3       1 <0>        -0.0635
     12 C11         0.6487   -0.4624   -1.2949 C.3       1 <0>        -0.0666
     13 C12         0.2415    0.4922   -2.4249 C.3       1 <0>        -0.1155
     14 C13         0.7963   -0.0480   -3.7384 C.3       1 <0>        -0.1021
     15 C14         2.3265   -0.0695   -3.7160 C.3       1 <0>        -0.0045
     16 C15         2.8676   -0.7860   -2.4619 C.3       1 <0>        -0.0744
     17 C16         2.6379   -2.2460   -2.9039 C.3       1 <0>        -0.0969
     18 C17         2.9416   -2.1866   -4.3928 C.2       1 <0>        -0.1249
     19 C18         2.7564   -0.9988   -4.8505 C.2       1 <0>        -0.0873
     20 C19         2.9688   -0.5838   -6.2524 C.ar      1 <0>         0.1337
     21 C20         3.3573   -1.5232   -7.2106 C.ar      1 <0>         0.0562
     22 N1          3.5455   -1.1465   -8.4609 N.ar      1 <0>        -0.4338
     23 C21         3.3669    0.1173   -8.8071 C.ar      1 <0>         0.0408
     24 C22         2.9824    1.0519   -7.8613 C.ar      1 <0>         0.0558
     25 N2          2.7855    0.6852   -6.6084 N.ar      1 <0>        -0.4244
     26 C23         2.9221    1.3327   -3.8572 C.3       1 <0>        -0.1404
     27 O1         -2.0014   -0.3509    3.7685 O.3       1 <0>        -0.5688
     28 H2          1.0039    1.9031    0.0027 H         1 <0>         0.0549
     29 H3         -0.5459    1.8868   -0.8726 H         1 <0>         0.0653
     30 H4         -0.5289    1.8773    0.9072 H         1 <0>         0.0568
     31 H5         -2.0048   -0.0796   -0.7811 H         1 <0>         0.0733
     32 H6         -1.4598   -1.5881   -0.0085 H         1 <0>         0.0641
     33 H7         -2.0285    1.0283    1.4560 H         1 <0>         0.0742
     34 H8         -3.1314   -0.3660    1.3885 H         1 <0>         0.0697
     35 H9          0.1065    0.8805    2.7762 H         1 <0>         0.0797
     36 H10         0.6529   -0.7131    3.3590 H         1 <0>         0.0687
     37 H11         2.3258   -1.3827    2.1339 H         1 <0>         0.1037
     38 H12         3.6602   -1.3875    0.0807 H         1 <0>         0.0700
     39 H13         2.3087   -2.4478   -0.3880 H         1 <0>         0.0760
     40 H14         2.4875    0.5584   -0.8631 H         1 <0>         0.0730
     41 H15         0.3090   -1.4702   -1.5334 H         1 <0>         0.0722
     42 H16        -0.8455    0.5491   -2.4823 H         1 <0>         0.0646
     43 H17         0.6533    1.4831   -2.2335 H         1 <0>         0.0721
     44 H18         0.4258   -1.0612   -3.8943 H         1 <0>         0.0592
     45 H19         0.4586    0.5863   -4.5580 H         1 <0>         0.0638
     46 H20         3.9390   -0.6163   -2.3557 H         1 <0>         0.0772
     47 H21         3.3279   -2.9184   -2.3940 H         1 <0>         0.0760
     48 H22         1.6042   -2.5454   -2.7308 H         1 <0>         0.0858
     49 H23         3.2365   -3.0312   -4.9979 H         1 <0>         0.1269
     50 H24         3.5037   -2.5554   -6.9284 H         1 <0>         0.1675
     51 H25         3.5221    0.4214   -9.8317 H         1 <0>         0.1704
     52 H26         2.8385    2.0826   -8.1500 H         1 <0>         0.1719
     53 H27         2.5886    1.9544   -3.0263 H         1 <0>         0.0513
     54 H28         4.0101    1.2679   -3.8486 H         1 <0>         0.0463
     55 H29         2.5918    1.7748   -4.7972 H         1 <0>         0.0842
     56 H30        -1.5855   -0.7244    4.5577 H         1 <0>         0.3780
@<TRIPOS>BOND
     1    1    2 1
     2    1   28 1
     3    1   29 1
     4    1   30 1
     5    2    8 1
     6    2   12 1
     7    2    3 1
     8    3    4 1
     9    3   31 1
    10    3   32 1
    11    4    5 1
    12    4   33 1
    13    4   34 1
    14    5    6 1
    15    5    7 1
    16    5   27 1
    17    7    8 1
    18    7   35 1
    19    7   36 1
    20    8    9 2
    21    9   10 1
    22    9   37 1
    23   10   11 1
    24   10   38 1
    25   10   39 1
    26   11   16 1
    27   11   12 1
    28   11   40 1
    29   12   13 1
    30   12   41 1
    31   13   14 1
    32   13   42 1
    33   13   43 1
    34   14   15 1
    35   14   44 1
    36   14   45 1
    37   15   19 1
    38   15   16 1
    39   15   26 1
    40   16   17 1
    41   16   46 1
    42   17   18 1
    43   17   47 1
    44   17   48 1
    45   18   19 2
    46   18   49 1
    47   19   20 1
    48   20   25 ar
    49   20   21 ar
    50   21   22 ar
    51   21   50 1
    52   22   23 ar
    53   23   24 ar
    54   23   51 1
    55   24   25 ar
    56   24   52 1
    57   26   53 1
    58   26   54 1
    59   26   55 1
    60   27   56 1
@<TRIPOS>MOLECULE
CHEMBL74606__1
   56    60     0     0     0
SMALL
USER_CHARGES

@<TRIPOS>ATOM
      1 C1          0.5373    1.2669    0.3372 C.3       1 <0>        -0.1479
      2 C2          0.6536   -0.2569    0.2622 C.3       1 <0>        -0.0139
      3 C3         -0.7017   -0.8571    0.6463 C.3       1 <0>        -0.1044
      4 C4         -1.0238   -0.4964    2.0977 C.3       1 <0>        -0.1153
      5 C5          0.0214   -1.1163    3.0268 C.3       1 <0>         0.1084
      6 H1          0.0592   -2.1934    2.8642 H         1 <0>         0.0545
      7 C6          1.3940   -0.5061    2.7279 C.3       1 <0>        -0.1171
      8 C7          1.6929   -0.6957    1.2503 C.2       1 <0>        -0.1048
      9 C8          2.8315   -1.2284    0.9160 C.2       1 <0>        -0.1542
     10 C9          3.2336   -1.4735   -0.5089 C.3       1 <0>        -0.0848
     11 C10         2.5050   -0.4769   -1.4178 C.3       1 <0>        -0.0687
     12 C11         0.9878   -0.6368   -1.1709 C.3       1 <0>        -0.0663
     13 C12         0.1519    0.1996   -2.1346 C.3       1 <0>        -0.1224
     14 C13         0.5233   -0.0684   -3.6030 C.3       1 <0>        -0.0986
     15 C14         2.0030    0.2063   -3.7363 C.3       1 <0>        -0.0185
     16 C15         2.7618   -0.8336   -2.8699 C.3       1 <0>        -0.0860
     17 C16         4.1854   -0.5953   -3.3933 C.3       1 <0>        -0.0897
     18 C17         3.9325   -0.3450   -4.8800 C.2       1 <0>        -0.1220
     19 C18         2.6505    0.0696   -5.0733 C.2       1 <0>        -0.0866
     20 C19         2.0210    0.3850   -6.3721 C.ar      1 <0>         0.1383
     21 C20         2.7358    0.2076   -7.5592 C.ar      1 <0>         0.0562
     22 N1          2.1681    0.4911   -8.7160 N.ar      1 <0>        -0.4341
     23 C21         0.9255    0.9421   -8.7524 C.ar      1 <0>         0.0397
     24 C22         0.2133    1.1199   -7.5790 C.ar      1 <0>         0.0575
     25 N2          0.7691    0.8339   -6.4161 N.ar      1 <0>        -0.4265
     26 C23         2.3125    1.5916   -3.1653 C.3       1 <0>        -0.1505
     27 O1         -0.3323   -0.8516    4.3858 O.3       1 <0>        -0.5687
     28 H2          1.4566    1.7201   -0.0337 H         1 <0>         0.0555
     29 H3         -0.3029    1.5976   -0.2734 H         1 <0>         0.0633
     30 H4          0.3754    1.5684    1.3720 H         1 <0>         0.0567
     31 H5         -1.4756   -0.4562   -0.0083 H         1 <0>         0.0739
     32 H6         -0.6621   -1.9413    0.5413 H         1 <0>         0.0638
     33 H7         -1.0142    0.5875    2.2127 H         1 <0>         0.0735
     34 H8         -2.0112   -0.8791    2.3560 H         1 <0>         0.0695
     35 H9          1.3818    0.5575    2.9657 H         1 <0>         0.0798
     36 H10         2.1560   -1.0090    3.3233 H         1 <0>         0.0688
     37 H11         3.5194   -1.5076    1.7004 H         1 <0>         0.1032
     38 H12         4.3105   -1.3397   -0.6115 H         1 <0>         0.0711
     39 H13         2.9636   -2.4904   -0.7936 H         1 <0>         0.0731
     40 H14         2.8421    0.5391   -1.2122 H         1 <0>         0.0877
     41 H15         0.7176   -1.6824   -1.3182 H         1 <0>         0.0658
     42 H16        -0.9018   -0.0371   -1.9868 H         1 <0>         0.0607
     43 H17         0.3102    1.2557   -1.9162 H         1 <0>         0.0743
     44 H18         0.3129   -1.1074   -3.8569 H         1 <0>         0.0559
     45 H19        -0.0397    0.5973   -4.2572 H         1 <0>         0.0849
     46 H20         2.4042   -1.8374   -3.0990 H         1 <0>         0.0811
     47 H21         4.6335    0.2791   -2.9211 H         1 <0>         0.0875
     48 H22         4.8079   -1.4780   -3.2466 H         1 <0>         0.0775
     49 H23         4.6494   -0.5159   -5.6694 H         1 <0>         0.1326
     50 H24         3.7508   -0.1603   -7.5301 H         1 <0>         0.1671
     51 H25         0.4647    1.1729   -9.7015 H         1 <0>         0.1702
     52 H26        -0.8011    1.4889   -7.6151 H         1 <0>         0.1716
     53 H27         1.9438    1.6533   -2.1415 H         1 <0>         0.0742
     54 H28         3.3901    1.7557   -3.1739 H         1 <0>         0.0532
     55 H29         1.8242    2.3528   -3.7738 H         1 <0>         0.0519
     56 H30         0.2880   -1.2164    5.0318 H         1 <0>         0.3779
@<TRIPOS>BOND
     1    1    2 1
     2    1   28 1
     3    1   29 1
     4    1   30 1
     5    2    8 1
     6    2   12 1
     7    2    3 1
     8    3    4 1
     9    3   31 1
    10    3   32 1
    11    4    5 1
    12    4   33 1
    13    4   34 1
    14    5    6 1
    15    5    7 1
    16    5   27 1
    17    7    8 1
    18    7   35 1
    19    7   36 1
    20    8    9 2
    21    9   10 1
    22    9   37 1
    23   10   11 1
    24   10   38 1
    25   10   39 1
    26   11   16 1
    27   11   12 1
    28   11   40 1
    29   12   13 1
    30   12   41 1
    31   13   14 1
    32   13   42 1
    33   13   43 1
    34   14   15 1
    35   14   44 1
    36   14   45 1
    37   15   19 1
    38   15   16 1
    39   15   26 1
    40   16   17 1
    41   16   46 1
    42   17   18 1
    43   17   47 1
    44   17   48 1
    45   18   19 2
    46   18   49 1
    47   19   20 1
    48   20   25 ar
    49   20   21 ar
    50   21   22 ar
    51   21   50 1
    52   22   23 ar
    53   23   24 ar
    54   23   51 1
    55   24   25 ar
    56   24   52 1
    57   26   53 1
    58   26   54 1
    59   26   55 1
    60   27   56 1
@<TRIPOS>MOLECULE
CHEMBL74606__2
   56    60     0     0     0
SMALL
USER_CHARGES

@<TRIPOS>ATOM
      1 C1         -0.0187    1.5258    0.0104 C.3       1 <0>        -0.1446
      2 C2          0.0021   -0.0041    0.0020 C.3       1 <0>        -0.0124
      3 C3         -1.4446   -0.5042    0.0523 C.3       1 <0>        -0.1064
      4 C4         -2.0876   -0.0668    1.3698 C.3       1 <0>        -0.1162
      5 C5         -1.3486   -0.7116    2.5436 C.3       1 <0>         0.1092
      6 H1         -1.3489   -1.7948    2.4223 H         1 <0>         0.0528
      7 C6          0.0953   -0.2022    2.5792 C.3       1 <0>        -0.1171
      8 C7          0.7327   -0.4727    1.2268 C.2       1 <0>        -0.1063
      9 C8          1.8739   -1.0964    1.1973 C.2       1 <0>        -0.1564
     10 C9          2.5955   -1.4286   -0.0774 C.3       1 <0>        -0.1010
     11 C10         2.1829   -0.4251   -1.1594 C.3       1 <0>        -0.0700
     12 C11         0.6547   -0.4658   -1.2897 C.3       1 <0>        -0.0683
     13 C12         0.2206   -1.9012   -1.6094 C.3       1 <0>        -0.1111
     14 C13         0.7913   -2.2786   -2.9761 C.3       1 <0>        -0.1165
     15 C14         2.2965   -2.1818   -2.9954 C.3       1 <0>        -0.0066
     16 C15         2.8509   -0.8036   -2.4827 C.3       1 <0>        -0.0779
     17 C16         4.3046   -1.2507   -2.1251 C.3       1 <0>        -0.0984
     18 C17         4.1140   -2.6752   -1.6360 C.2       1 <0>        -0.1147
     19 C18         2.9751   -3.2025   -2.1202 C.2       1 <0>        -0.0922
     20 C19         2.4665   -4.5614   -1.8421 C.ar      1 <0>         0.1397
     21 C20         3.1835   -5.4211   -1.0063 C.ar      1 <0>         0.0541
     22 N1          2.7241   -6.6335   -0.7619 N.ar      1 <0>        -0.4324
     23 C21         1.5877   -7.0347   -1.3064 C.ar      1 <0>         0.0390
     24 C22         0.8739   -6.1869   -2.1355 C.ar      1 <0>         0.0571
     25 N2          1.3209   -4.9694   -2.3825 N.ar      1 <0>        -0.4235
     26 C23         2.7800   -2.3776   -4.4337 C.3       1 <0>        -0.1410
     27 O1         -2.0050   -0.3690    3.7658 O.3       1 <0>        -0.5688
     28 H2          1.0039    1.9031    0.0027 H         1 <0>         0.0547
     29 H3         -0.5459    1.8868   -0.8726 H         1 <0>         0.0569
     30 H4         -0.5289    1.8773    0.9072 H         1 <0>         0.0587
     31 H5         -2.0041   -0.0829   -0.7829 H         1 <0>         0.0720
     32 H6         -1.4557   -1.5921   -0.0141 H         1 <0>         0.0703
     33 H7         -2.0316    1.0182    1.4580 H         1 <0>         0.0731
     34 H8         -3.1323   -0.3776    1.3842 H         1 <0>         0.0690
     35 H9          0.1018    0.8691    2.7804 H         1 <0>         0.0789
     36 H10         0.6501   -0.7257    3.3578 H         1 <0>         0.0670
     37 H11         2.3242   -1.3890    2.1343 H         1 <0>         0.0995
     38 H12         3.6714   -1.3673    0.0859 H         1 <0>         0.0750
     39 H13         2.3300   -2.4370   -0.3947 H         1 <0>         0.0945
     40 H14         2.5006    0.5755   -0.8660 H         1 <0>         0.0715
     41 H15         0.3441    0.1878   -2.1049 H         1 <0>         0.0727
     42 H16         0.6068   -2.5802   -0.8492 H         1 <0>         0.0616
     43 H17        -0.8676   -1.9590   -1.6364 H         1 <0>         0.0644
     44 H18         0.4974   -3.3007   -3.2146 H         1 <0>         0.0969
     45 H19         0.3818   -1.6068   -3.7306 H         1 <0>         0.0549
     46 H20         2.7995   -0.0080   -3.2260 H         1 <0>         0.0952
     47 H21         4.9429   -1.2287   -3.0084 H         1 <0>         0.0829
     48 H22         4.7171   -0.6238   -1.3346 H         1 <0>         0.0796
     49 H23         4.7931   -3.2005   -0.9807 H         1 <0>         0.1303
     50 H24         4.1118   -5.0942   -0.5617 H         1 <0>         0.1660
     51 H25         1.2153   -8.0280   -1.1036 H         1 <0>         0.1695
     52 H26        -0.0534   -6.5203   -2.5775 H         1 <0>         0.1712
     53 H27         2.3603   -1.5966   -5.0677 H         1 <0>         0.0574
     54 H28         3.8683   -2.3227   -4.4619 H         1 <0>         0.0539
     55 H29         2.4560   -3.3532   -4.7963 H         1 <0>         0.0550
     56 H30        -1.5895   -0.7446    4.5541 H         1 <0>         0.3775
@<TRIPOS>BOND
     1    1    2 1
     2    1   28 1
     3    1   29 1
     4    1   30 1
     5    2    8 1
     6    2   12 1
     7    2    3 1
     8    3    4 1
     9    3   31 1
    10    3   32 1
    11    4    5 1
    12    4   33 1
    13    4   34 1
    14    5    6 1
    15    5    7 1
    16    5   27 1
    17    7    8 1
    18    7   35 1
    19    7   36 1
    20    8    9 2
    21    9   10 1
    22    9   37 1
    23   10   11 1
    24   10   38 1
    25   10   39 1
    26   11   16 1
    27   11   12 1
    28   11   40 1
    29   12   13 1
    30   12   41 1
    31   13   14 1
    32   13   42 1
    33   13   43 1
    34   14   15 1
    35   14   44 1
    36   14   45 1
    37   15   19 1
    38   15   16 1
    39   15   26 1
    40   16   17 1
    41   16   46 1
    42   17   18 1
    43   17   47 1
    44   17   48 1
    45   18   19 2
    46   18   49 1
    47   19   20 1
    48   20   25 ar
    49   20   21 ar
    50   21   22 ar
    51   21   50 1
    52   22   23 ar
    53   23   24 ar
    54   23   51 1
    55   24   25 ar
    56   24   52 1
    57   26   53 1
    58   26   54 1
    59   26   55 1
    60   27   56 1
@<TRIPOS>MOLECULE
CHEMBL74606__3
   56    60     0     0     0
SMALL
USER_CHARGES

@<TRIPOS>ATOM
      1 C1         -0.9882    1.3319   -0.4646 C.3       1 <0>        -0.1475
      2 C2         -0.8836   -0.2028   -0.4970 C.3       1 <0>        -0.0110
      3 C3         -2.2790   -0.7520   -0.7949 C.3       1 <0>        -0.1013
      4 C4         -3.2423   -0.4266    0.3462 C.3       1 <0>        -0.1152
      5 C5         -2.7456   -1.0360    1.6558 C.3       1 <0>         0.1095
      6 H1         -2.6332   -2.1135    1.5339 H         1 <0>         0.0546
      7 C6         -1.3903   -0.4213    2.0283 C.3       1 <0>        -0.1164
      8 C7         -0.4420   -0.6463    0.8623 C.2       1 <0>        -0.1033
      9 C8          0.6928   -1.2331    1.0905 C.2       1 <0>        -0.1528
     10 C9          1.6648   -1.5837    0.0089 C.3       1 <0>        -0.0844
     11 C10         1.5364   -0.6424   -1.1986 C.3       1 <0>        -0.0544
     12 C11         0.0786   -0.5264   -1.6202 C.3       1 <0>        -0.0754
     13 C12        -0.3703   -1.6815   -2.4908 C.3       1 <0>        -0.1110
     14 C13         0.3978   -1.7441   -3.8243 C.3       1 <0>        -0.0900
     15 C14         1.7164   -1.0295   -3.7073 C.3       1 <0>        -0.0085
     16 C15         2.3347   -1.2844   -2.3160 C.3       1 <0>        -0.0804
     17 C16         3.7275   -0.6882   -2.5962 C.3       1 <0>        -0.0943
     18 C17         3.9968   -1.2938   -3.9775 C.2       1 <0>        -0.1271
     19 C18         2.8349   -1.5076   -4.6062 C.2       1 <0>        -0.0914
     20 C19         2.6579   -2.1015   -5.9473 C.ar      1 <0>         0.1354
     21 C20         3.7710   -2.5128   -6.6846 C.ar      1 <0>         0.0566
     22 N1          3.6065   -3.0424   -7.8817 N.ar      1 <0>        -0.4345
     23 C21         2.3910   -3.1840   -8.3832 C.ar      1 <0>         0.0403
     24 C22         1.2851   -2.7777   -7.6568 C.ar      1 <0>         0.0567
     25 N2          1.4373   -2.2519   -6.4554 N.ar      1 <0>        -0.4248
     26 C23         1.5601    0.4585   -4.0225 C.3       1 <0>        -0.1457
     27 O1         -3.6906   -0.7705    2.6933 O.3       1 <0>        -0.5687
     28 H2         -0.0149    1.7574   -0.2204 H         1 <0>         0.0548
     29 H3         -1.3088    1.6949   -1.4411 H         1 <0>         0.0570
     30 H4         -1.7152    1.6306    0.2906 H         1 <0>         0.0583
     31 H5         -2.6511   -0.3026   -1.7195 H         1 <0>         0.0727
     32 H6         -2.2263   -1.8354   -0.9211 H         1 <0>         0.0682
     33 H7         -3.3590    0.6483    0.4569 H         1 <0>         0.0726
     34 H8         -4.2227   -0.8533    0.1080 H         1 <0>         0.0670
     35 H9         -1.5066    0.6406    2.2251 H         1 <0>         0.0796
     36 H10        -1.0015   -0.9170    2.9177 H         1 <0>         0.0676
     37 H11         0.9459   -1.4781    2.1133 H         1 <0>         0.1030
     38 H12         2.6818   -1.5179    0.4022 H         1 <0>         0.0674
     39 H13         1.4826   -2.6093   -0.3188 H         1 <0>         0.0727
     40 H14         1.9529    0.3343   -0.9503 H         1 <0>         0.0778
     41 H15        -0.0033    0.3850   -2.2389 H         1 <0>         0.0739
     42 H16        -0.2328   -2.6258   -1.9538 H         1 <0>         0.0551
     43 H17        -1.4391   -1.5809   -2.7144 H         1 <0>         0.0666
     44 H18         0.5622   -2.7936   -4.1013 H         1 <0>         0.0605
     45 H19        -0.2054   -1.2773   -4.6156 H         1 <0>         0.0675
     46 H20         2.4371   -2.3673   -2.1243 H         1 <0>         0.0820
     47 H21         3.7166    0.3940   -2.6220 H         1 <0>         0.0894
     48 H22         4.4576   -1.0500   -1.8712 H         1 <0>         0.0740
     49 H23         4.9753   -1.5043   -4.3814 H         1 <0>         0.1317
     50 H24         4.7639   -2.3971   -6.2757 H         1 <0>         0.1669
     51 H25         2.2608   -3.6180   -9.3635 H         1 <0>         0.1701
     52 H26         0.2950   -2.8956   -8.0718 H         1 <0>         0.1715
     53 H27         0.9876    0.9397   -3.2295 H         1 <0>         0.0676
     54 H28         2.5448    0.9206   -4.0915 H         1 <0>         0.0547
     55 H29         1.0363    0.5758   -4.9712 H         1 <0>         0.0567
     56 H30        -3.4394   -1.1293    3.5554 H         1 <0>         0.3781
@<TRIPOS>BOND
     1    1    2 1
     2    1   28 1
     3    1   29 1
     4    1   30 1
     5    2    8 1
     6    2   12 1
     7    2    3 1
     8    3    4 1
     9    3   31 1
    10    3   32 1
    11    4    5 1
    12    4   33 1
    13    4   34 1
    14    5    6 1
    15    5    7 1
    16    5   27 1
    17    7    8 1
    18    7   35 1
    19    7   36 1
    20    8    9 2
    21    9   10 1
    22    9   37 1
    23   10   11 1
    24   10   38 1
    25   10   39 1
    26   11   16 1
    27   11   12 1
    28   11   40 1
    29   12   13 1
    30   12   41 1
    31   13   14 1
    32   13   42 1
    33   13   43 1
    34   14   15 1
    35   14   44 1
    36   14   45 1
    37   15   19 1
    38   15   16 1
    39   15   26 1
    40   16   17 1
    41   16   46 1
    42   17   18 1
    43   17   47 1
    44   17   48 1
    45   18   19 2
    46   18   49 1
    47   19   20 1
    48   20   25 ar
    49   20   21 ar
    50   21   22 ar
    51   21   50 1
    52   22   23 ar
    53   23   24 ar
    54   23   51 1
    55   24   25 ar
    56   24   52 1
    57   26   53 1
    58   26   54 1
    59   26   55 1
    60   27   56 1
@<TRIPOS>MOLECULE
CHEMBL74606__4
   56    60     0     0     0
SMALL
USER_CHARGES

@<TRIPOS>ATOM
      1 C1          0.5697    1.5139    0.4656 C.3       1 <0>        -0.1549
      2 C2          0.6999   -0.0068    0.5170 C.3       1 <0>        -0.0018
      3 C3         -0.6075   -0.5665    1.1070 C.3       1 <0>        -0.1035
      4 C4         -0.8393   -0.0332    2.5163 C.3       1 <0>        -0.1134
      5 C5          0.3086   -0.4094    3.4508 C.3       1 <0>         0.1109
      6 H1          0.3858   -1.4958    3.5145 H         1 <0>         0.0537
      7 C6          1.6284    0.1609    2.9208 C.3       1 <0>        -0.1173
      8 C7          1.8001   -0.3334    1.4943 C.2       1 <0>        -0.1046
      9 C8          2.8465   -1.0417    1.2058 C.2       1 <0>        -0.1530
     10 C9          3.0646   -1.6743   -0.1371 C.3       1 <0>        -0.0864
     11 C10         2.3773   -0.8472   -1.2206 C.3       1 <0>        -0.0646
     12 C11         0.9227   -0.5926   -0.8513 C.3       1 <0>        -0.0628
     13 C12         0.2240    0.1138   -1.9992 C.3       1 <0>        -0.1087
     14 C13         1.1981    0.5587   -3.0802 C.3       1 <0>        -0.1019
     15 C14         2.4394    1.2783   -2.5633 C.3       1 <0>         0.0036
     16 C15         3.1164    0.4645   -1.4508 C.3       1 <0>        -0.0721
     17 C16         4.5263    0.1673   -1.9967 C.3       1 <0>        -0.0993
     18 C17         4.5701    0.7364   -3.3901 C.2       1 <0>        -0.1220
     19 C18         3.4428    1.3402   -3.7023 C.2       1 <0>        -0.0899
     20 C19         3.1855    2.0046   -4.9965 C.ar      1 <0>         0.1343
     21 C20         4.1668    2.0072   -5.9908 C.ar      1 <0>         0.0549
     22 N1          3.9310    2.6022   -7.1445 N.ar      1 <0>        -0.4338
     23 C21         2.7687    3.1952   -7.3599 C.ar      1 <0>         0.0396
     24 C22         1.7934    3.1958   -6.3777 C.ar      1 <0>         0.0566
     25 N2          2.0160    2.5983   -5.2217 N.ar      1 <0>        -0.4257
     26 C23         2.1098    2.7037   -2.1092 C.3       1 <0>        -0.1464
     27 O1          0.0551    0.1217    4.7543 O.3       1 <0>        -0.5696
     28 H2          1.5160    1.9489    0.1443 H         1 <0>         0.0664
     29 H3         -0.2144    1.7878   -0.2403 H         1 <0>         0.0621
     30 H4          0.3145    1.8904    1.4562 H         1 <0>         0.0586
     31 H5         -1.4378   -0.2770    0.4619 H         1 <0>         0.0714
     32 H6         -0.5397   -1.6562    1.1353 H         1 <0>         0.0624
     33 H7         -0.9760    1.0455    2.5099 H         1 <0>         0.0748
     34 H8         -1.7637   -0.4808    2.9097 H         1 <0>         0.0649
     35 H9          1.6082    1.2456    2.9531 H         1 <0>         0.0812
     36 H10         2.4537   -0.2068    3.5338 H         1 <0>         0.0669
     37 H11         3.6004   -1.1836    1.9672 H         1 <0>         0.1025
     38 H12         4.1359   -1.7399   -0.3372 H         1 <0>         0.0730
     39 H13         2.6492   -2.6868   -0.1284 H         1 <0>         0.0722
     40 H14         2.4008   -1.4219   -2.1624 H         1 <0>         0.0720
     41 H15         0.4541   -1.6097   -0.8133 H         1 <0>         0.0549
     42 H16        -0.4604   -0.6239   -2.4670 H         1 <0>         0.0512
     43 H17        -0.3996    0.9372   -1.6884 H         1 <0>         0.0719
     44 H18         1.5123   -0.3185   -3.6548 H         1 <0>         0.0512
     45 H19         0.6661    1.2297   -3.7658 H         1 <0>         0.0733
     46 H20         3.1799    1.0413   -0.5237 H         1 <0>         0.0862
     47 H21         5.2847    0.6367   -1.3656 H         1 <0>         0.0796
     48 H22         4.6989   -0.9134   -2.0271 H         1 <0>         0.0823
     49 H23         5.4240    0.6611   -4.0548 H         1 <0>         0.1299
     50 H24         5.1164    1.5234   -5.8154 H         1 <0>         0.1671
     51 H25         2.5799    3.6811   -8.3057 H         1 <0>         0.1699
     52 H26         0.8463    3.6820   -6.5593 H         1 <0>         0.1714
     53 H27         1.2782    2.6776   -1.4051 H         1 <0>         0.0685
     54 H28         2.9825    3.1416   -1.6246 H         1 <0>         0.0478
     55 H29         1.8343    3.3063   -2.9747 H         1 <0>         0.0665
     56 H30         0.7448   -0.0789    5.4017 H         1 <0>         0.3783
@<TRIPOS>BOND
     1    1    2 1
     2    1   28 1
     3    1   29 1
     4    1   30 1
     5    2    8 1
     6    2   12 1
     7    2    3 1
     8    3    4 1
     9    3   31 1
    10    3   32 1
    11    4    5 1
    12    4   33 1
    13    4   34 1
    14    5    6 1
    15    5    7 1
    16    5   27 1
    17    7    8 1
    18    7   35 1
    19    7   36 1
    20    8    9 2
    21    9   10 1
    22    9   37 1
    23   10   11 1
    24   10   38 1
    25   10   39 1
    26   11   16 1
    27   11   12 1
    28   11   40 1
    29   12   13 1
    30   12   41 1
    31   13   14 1
    32   13   42 1
    33   13   43 1
    34   14   15 1
    35   14   44 1
    36   14   45 1
    37   15   19 1
    38   15   16 1
    39   15   26 1
    40   16   17 1
    41   16   46 1
    42   17   18 1
    43   17   47 1
    44   17   48 1
    45   18   19 2
    46   18   49 1
    47   19   20 1
    48   20   25 ar
    49   20   21 ar
    50   21   22 ar
    51   21   50 1
    52   22   23 ar
    53   23   24 ar
    54   23   51 1
    55   24   25 ar
    56   24   52 1
    57   26   53 1
    58   26   54 1
    59   26   55 1
    60   27   56 1
@<TRIPOS>MOLECULE
CHEMBL74606__5
   56    60     0     0     0
SMALL
USER_CHARGES

@<TRIPOS>ATOM
      1 C1         -0.0611    1.2180    0.2301 C.3       1 <0>        -0.1407
      2 C2          0.0076   -0.3070    0.1192 C.3       1 <0>        -0.0059
      3 C3         -1.4296   -0.8361    0.2153 C.3       1 <0>        -0.1032
      4 C4         -1.6604   -1.5715    1.5265 C.3       1 <0>        -0.1065
      5 C5         -1.2369   -0.7589    2.7417 C.3       1 <0>         0.1124
      6 H1         -1.4447   -1.3350    3.6499 H         1 <0>         0.0513
      7 C6          0.2597   -0.4421    2.6836 C.3       1 <0>        -0.1215
      8 C7          0.7734   -0.8261    1.3063 C.2       1 <0>        -0.0993
      9 C8          1.8424   -1.5548    1.2303 C.2       1 <0>        -0.1641
     10 C9          2.4579   -1.9312   -0.0955 C.3       1 <0>        -0.0840
     11 C10         1.3385   -2.0482   -1.1203 C.3       1 <0>        -0.0561
     12 C11         0.5957   -0.7015   -1.2174 C.3       1 <0>        -0.0681
     13 C12         1.4220    0.3576   -1.9160 C.3       1 <0>        -0.1079
     14 C13         1.8154   -0.1006   -3.3392 C.3       1 <0>        -0.0950
     15 C14         2.5893   -1.3856   -3.2427 C.3       1 <0>        -0.0102
     16 C15         1.7536   -2.4468   -2.4965 C.3       1 <0>        -0.0766
     17 C16         2.6910   -3.6435   -2.7170 C.3       1 <0>        -0.0902
     18 C17         2.9954   -3.4428   -4.2084 C.2       1 <0>        -0.1274
     19 C18         2.9139   -2.1356   -4.5116 C.2       1 <0>        -0.0909
     20 C19         3.1082   -1.5247   -5.8427 C.ar      1 <0>         0.1366
     21 C20         3.4007   -2.3286   -6.9472 C.ar      1 <0>         0.0565
     22 N1          3.5732   -1.7772   -8.1334 N.ar      1 <0>        -0.4344
     23 C21         3.4695   -0.4667   -8.2772 C.ar      1 <0>         0.0400
     24 C22         3.1804    0.3341   -7.1859 C.ar      1 <0>         0.0570
     25 N2          2.9999   -0.2073   -5.9954 N.ar      1 <0>        -0.4253
     26 C23         3.9450   -1.1094   -2.5931 C.3       1 <0>        -0.1452
     27 O1         -1.9854    0.4592    2.7947 O.3       1 <0>        -0.5649
     28 H2          0.9489    1.6279    0.2348 H         1 <0>         0.0508
     29 H3         -0.6123    1.6196   -0.6202 H         1 <0>         0.0540
     30 H4         -0.5689    1.4925    1.1547 H         1 <0>         0.0664
     31 H5         -2.1206    0.0033    0.1341 H         1 <0>         0.0702
     32 H6         -1.6051   -1.5213   -0.6176 H         1 <0>         0.0612
     33 H7         -2.7245   -1.8122    1.6171 H         1 <0>         0.0644
     34 H8         -1.1040   -2.5129    1.5155 H         1 <0>         0.0730
     35 H9          0.4322    0.6167    2.8740 H         1 <0>         0.0814
     36 H10         0.7878   -1.0259    3.4440 H         1 <0>         0.0699
     37 H11         2.3110   -1.9053    2.1304 H         1 <0>         0.1037
     38 H12         3.1539   -1.1342   -0.3362 H         1 <0>         0.0826
     39 H13         2.9804   -2.8780    0.0110 H         1 <0>         0.0692
     40 H14         0.6069   -2.8017   -0.7367 H         1 <0>         0.0687
     41 H15        -0.2732   -0.8927   -1.8823 H         1 <0>         0.0590
     42 H16         0.8306    1.2708   -2.0538 H         1 <0>         0.0616
     43 H17         2.3090    0.5957   -1.3418 H         1 <0>         0.0639
     44 H18         0.9099   -0.2515   -3.9312 H         1 <0>         0.0552
     45 H19         2.4285    0.6736   -3.8070 H         1 <0>         0.0779
     46 H20         0.8231   -2.6481   -3.0941 H         1 <0>         0.0726
     47 H21         3.5800   -3.6096   -2.1074 H         1 <0>         0.0923
     48 H22         2.1516   -4.5835   -2.5691 H         1 <0>         0.0727
     49 H23         3.2376   -4.2311   -4.9020 H         1 <0>         0.1319
     50 H24         3.4858   -3.3989   -6.8304 H         1 <0>         0.1670
     51 H25         3.6115   -0.0194   -9.2499 H         1 <0>         0.1701
     52 H26         3.0973    1.4038   -7.3095 H         1 <0>         0.1716
     53 H27         3.7980   -0.5496   -1.6694 H         1 <0>         0.0662
     54 H28         4.4404   -2.0544   -2.3703 H         1 <0>         0.0570
     55 H29         4.5634   -0.5272   -3.2763 H         1 <0>         0.0535
     56 H30        -1.7637    1.0247    3.5470 H         1 <0>         0.3755
@<TRIPOS>BOND
     1    1    2 1
     2    1   28 1
     3    1   29 1
     4    1   30 1
     5    2    8 1
     6    2   12 1
     7    2    3 1
     8    3    4 1
     9    3   31 1
    10    3   32 1
    11    4    5 1
    12    4   33 1
    13    4   34 1
    14    5    6 1
    15    5    7 1
    16    5   27 1
    17    7    8 1
    18    7   35 1
    19    7   36 1
    20    8    9 2
    21    9   10 1
    22    9   37 1
    23   10   11 1
    24   10   38 1
    25   10   39 1
    26   11   16 1
    27   11   12 1
    28   11   40 1
    29   12   13 1
    30   12   41 1
    31   13   14 1
    32   13   42 1
    33   13   43 1
    34   14   15 1
    35   14   44 1
    36   14   45 1
    37   15   19 1
    38   15   16 1
    39   15   26 1
    40   16   17 1
    41   16   46 1
    42   17   18 1
    43   17   47 1
    44   17   48 1
    45   18   19 2
    46   18   49 1
    47   19   20 1
    48   20   25 ar
    49   20   21 ar
    50   21   22 ar
    51   21   50 1
    52   22   23 ar
    53   23   24 ar
    54   23   51 1
    55   24   25 ar
    56   24   52 1
    57   26   53 1
    58   26   54 1
    59   26   55 1
    60   27   56 1
@<TRIPOS>MOLECULE
CHEMBL74606__6
   56    60     0     0     0
SMALL
USER_CHARGES

@<TRIPOS>ATOM
      1 C1         -0.3943    1.3802   -0.1699 C.3       1 <0>        -0.1331
      2 C2         -0.4885   -0.1461   -0.1236 C.3       1 <0>        -0.0113
      3 C3         -1.8991   -0.5270    0.3214 C.3       1 <0>        -0.0919
      4 C4         -1.9557   -0.6439    1.8438 C.3       1 <0>        -0.1114
      5 C5         -1.0309    0.3737    2.5087 C.3       1 <0>         0.1069
      6 H1         -1.2335    0.4035    3.5792 H         1 <0>         0.0528
      7 C6          0.4308   -0.0338    2.2757 C.3       1 <0>        -0.1186
      8 C7          0.5024   -0.6512    0.8884 C.2       1 <0>        -0.0983
      9 C8          1.3676   -1.5833    0.6464 C.2       1 <0>        -0.1642
     10 C9          1.4773   -2.2951   -0.6674 C.3       1 <0>        -0.0831
     11 C10         0.1652   -2.1587   -1.4542 C.3       1 <0>        -0.0698
     12 C11        -0.2101   -0.6879   -1.5225 C.3       1 <0>        -0.0666
     13 C12        -1.4940   -0.5431   -2.3521 C.3       1 <0>        -0.1044
     14 C13        -1.2163   -1.0261   -3.7732 C.3       1 <0>        -0.1163
     15 C14        -0.7932   -2.4747   -3.7790 C.3       1 <0>        -0.0105
     16 C15         0.3964   -2.7468   -2.8490 C.3       1 <0>        -0.0774
     17 C16         0.1881   -4.2893   -2.7080 C.3       1 <0>        -0.1000
     18 C17        -1.3225   -4.4355   -2.7539 C.2       1 <0>        -0.1242
     19 C18        -1.8782   -3.4199   -3.3344 C.2       1 <0>        -0.0760
     20 C19        -3.3257   -3.2230   -3.5550 C.ar      1 <0>         0.1383
     21 C20        -4.2412   -4.1702   -3.0897 C.ar      1 <0>         0.0556
     22 N1         -5.5326   -3.9887   -3.2899 N.ar      1 <0>        -0.4333
     23 C21        -5.9602   -2.9130   -3.9293 C.ar      1 <0>         0.0404
     24 C22        -5.0571   -1.9719   -4.3926 C.ar      1 <0>         0.0563
     25 N2         -3.7630   -2.1400   -4.1929 N.ar      1 <0>        -0.4214
     26 C23        -0.3671   -2.8550   -5.1984 C.3       1 <0>        -0.1416
     27 O1         -1.2608    1.6662    1.9442 O.3       1 <0>        -0.5497
     28 H2          0.2287    1.6804   -1.0124 H         1 <0>         0.0307
     29 H3         -1.3922    1.8025   -0.2874 H         1 <0>         0.0575
     30 H4          0.0479    1.7453    0.7571 H         1 <0>         0.0798
     31 H5         -2.6013    0.2385   -0.0087 H         1 <0>         0.0651
     32 H6         -2.1732   -1.4829   -0.1250 H         1 <0>         0.0580
     33 H7         -2.9785   -0.4695    2.1779 H         1 <0>         0.0629
     34 H8         -1.6513   -1.6487    2.1368 H         1 <0>         0.0707
     35 H9          1.0745    0.8444    2.3258 H         1 <0>         0.0776
     36 H10         0.7374   -0.7643    3.0244 H         1 <0>         0.0750
     37 H11         2.0490   -1.8635    1.4360 H         1 <0>         0.0989
     38 H12         2.2925   -1.8612   -1.2464 H         1 <0>         0.0704
     39 H13         1.6844   -3.3505   -0.4904 H         1 <0>         0.0686
     40 H14        -0.6242   -2.7150   -0.9488 H         1 <0>         0.0737
     41 H15         0.6063   -0.1278   -1.9786 H         1 <0>         0.0704
     42 H16        -2.2857   -1.1471   -1.9088 H         1 <0>         0.0611
     43 H17        -1.7986    0.5032   -2.3746 H         1 <0>         0.0585
     44 H18        -2.1201   -0.9148   -4.3722 H         1 <0>         0.0943
     45 H19        -0.4222   -0.4196   -4.2088 H         1 <0>         0.0541
     46 H20         1.3645   -2.4692   -3.2660 H         1 <0>         0.0957
     47 H21         0.6520   -4.8186   -3.5403 H         1 <0>         0.0831
     48 H22         0.5811   -4.6459   -1.7559 H         1 <0>         0.0773
     49 H23        -1.8764   -5.2677   -2.3451 H         1 <0>         0.1246
     50 H24        -3.8925   -5.0490   -2.5678 H         1 <0>         0.1663
     51 H25        -7.0182   -2.7684   -4.0910 H         1 <0>         0.1697
     52 H26        -5.4123   -1.0956   -4.9145 H         1 <0>         0.1714
     53 H27         0.4741   -2.2330   -5.5042 H         1 <0>         0.0577
     54 H28        -0.0704   -3.9037   -5.2199 H         1 <0>         0.0540
     55 H29        -1.2016   -2.6994   -5.8822 H         1 <0>         0.0547
     56 H30        -0.7766    2.3789    2.3833 H         1 <0>         0.3712
@<TRIPOS>BOND
     1    1    2 1
     2    1   28 1
     3    1   29 1
     4    1   30 1
     5    2    8 1
     6    2   12 1
     7    2    3 1
     8    3    4 1
     9    3   31 1
    10    3   32 1
    11    4    5 1
    12    4   33 1
    13    4   34 1
    14    5    6 1
    15    5    7 1
    16    5   27 1
    17    7    8 1
    18    7   35 1
    19    7   36 1
    20    8    9 2
    21    9   10 1
    22    9   37 1
    23   10   11 1
    24   10   38 1
    25   10   39 1
    26   11   16 1
    27   11   12 1
    28   11   40 1
    29   12   13 1
    30   12   41 1
    31   13   14 1
    32   13   42 1
    33   13   43 1
    34   14   15 1
    35   14   44 1
    36   14   45 1
    37   15   19 1
    38   15   16 1
    39   15   26 1
    40   16   17 1
    41   16   46 1
    42   17   18 1
    43   17   47 1
    44   17   48 1
    45   18   19 2
    46   18   49 1
    47   19   20 1
    48   20   25 ar
    49   20   21 ar
    50   21   22 ar
    51   21   50 1
    52   22   23 ar
    53   23   24 ar
    54   23   51 1
    55   24   25 ar
    56   24   52 1
    57   26   53 1
    58   26   54 1
    59   26   55 1
    60   27   56 1
@<TRIPOS>MOLECULE
CHEMBL74606__7
   56    60     0     0     0
SMALL
USER_CHARGES

@<TRIPOS>ATOM
      1 C1         -0.3076    2.1741   -0.8797 C.3       1 <0>        -0.1463
      2 C2         -0.3796    0.6656   -0.6196 C.3       1 <0>        -0.0120
      3 C3         -1.8311    0.2165   -0.6966 C.3       1 <0>        -0.0999
      4 C4         -2.4027   -0.0382    0.6941 C.3       1 <0>        -0.1083
      5 C5         -2.0484    1.0501    1.6958 C.3       1 <0>         0.1139
      6 H1         -2.5232    0.8132    2.6576 H         1 <0>         0.0490
      7 C6         -0.5340    1.1363    1.9067 C.3       1 <0>        -0.1210
      8 C7          0.1425    0.3913    0.7694 C.2       1 <0>        -0.0996
      9 C8          1.1030   -0.4366    1.0465 C.2       1 <0>        -0.1630
     10 C9          1.8094   -1.2615    0.0007 C.3       1 <0>        -0.0781
     11 C10         0.8388   -1.4262   -1.1698 C.3       1 <0>        -0.0668
     12 C11         0.4852   -0.0225   -1.6773 C.3       1 <0>        -0.0702
     13 C12        -0.2196   -0.0961   -3.0206 C.3       1 <0>        -0.1109
     14 C13         0.6422   -0.7564   -4.1098 C.3       1 <0>        -0.0903
     15 C14         1.7994   -1.5042   -3.5063 C.3       1 <0>        -0.0068
     16 C15         1.3199   -2.3038   -2.2705 C.3       1 <0>        -0.0732
     17 C16         2.5921   -3.1429   -2.0546 C.3       1 <0>        -0.0900
     18 C17         2.8814   -3.5511   -3.5034 C.2       1 <0>        -0.1276
     19 C18         2.4062   -2.6145   -4.3368 C.2       1 <0>        -0.0917
     20 C19         2.4618   -2.6443   -5.8128 C.ar      1 <0>         0.1358
     21 C20         3.0446   -3.7302   -6.4708 C.ar      1 <0>         0.0562
     22 N1          3.0913   -3.7509   -7.7892 N.ar      1 <0>        -0.4346
     23 C21         2.5879   -2.7466   -8.4868 C.ar      1 <0>         0.0399
     24 C22         2.0099   -1.6682   -7.8395 C.ar      1 <0>         0.0569
     25 N2          1.9522   -1.6394   -6.5209 N.ar      1 <0>        -0.4249
     26 C23         2.9553   -0.5532   -3.1914 C.3       1 <0>        -0.1461
     27 O1         -2.5521    2.3107    1.2493 O.3       1 <0>        -0.5622
     28 H2          0.7270    2.5077   -0.7995 H         1 <0>         0.0467
     29 H3         -0.6819    2.3885   -1.8807 H         1 <0>         0.0544
     30 H4         -0.9167    2.6991   -0.1438 H         1 <0>         0.0730
     31 H5         -2.4236    0.9847   -1.1970 H         1 <0>         0.0679
     32 H6         -1.8972   -0.7084   -1.2759 H         1 <0>         0.0654
     33 H7         -3.4934   -0.1055    0.6169 H         1 <0>         0.0643
     34 H8         -2.0326   -0.9992    1.0611 H         1 <0>         0.0720
     35 H9         -0.2102    2.1759    1.9277 H         1 <0>         0.0808
     36 H10        -0.2696    0.6624    2.8585 H         1 <0>         0.0710
     37 H11         1.4115   -0.5428    2.0725 H         1 <0>         0.1019
     38 H12         2.7081   -0.7435   -0.3221 H         1 <0>         0.0744
     39 H13         2.0618   -2.2346    0.4157 H         1 <0>         0.0725
     40 H14        -0.0935   -1.8709   -0.7559 H         1 <0>         0.0675
     41 H15         1.3836    0.5901   -1.7551 H         1 <0>         0.0797
     42 H16        -1.1484   -0.6708   -2.9165 H         1 <0>         0.0595
     43 H17        -0.4932    0.9125   -3.3515 H         1 <0>         0.0611
     44 H18         0.0181   -1.4484   -4.6919 H         1 <0>         0.0568
     45 H19         1.0170    0.0147   -4.7952 H         1 <0>         0.0694
     46 H20         0.5013   -2.9930   -2.5756 H         1 <0>         0.0753
     47 H21         3.4029   -2.5741   -1.6226 H         1 <0>         0.0913
     48 H22         2.3702   -4.0256   -1.4504 H         1 <0>         0.0733
     49 H23         3.3907   -4.4530   -3.8015 H         1 <0>         0.1316
     50 H24         3.4561   -4.5506   -5.9016 H         1 <0>         0.1669
     51 H25         2.6282   -2.7676   -9.5658 H         1 <0>         0.1700
     52 H26         1.6008   -0.8508   -8.4146 H         1 <0>         0.1714
     53 H27         2.6682    0.1097   -2.3752 H         1 <0>         0.0693
     54 H28         3.8319   -1.1312   -2.8989 H         1 <0>         0.0536
     55 H29         3.1893    0.0395   -4.0757 H         1 <0>         0.0555
     56 H30        -2.3579    3.0458    1.8468 H         1 <0>         0.3755
@<TRIPOS>BOND
     1    1    2 1
     2    1   28 1
     3    1   29 1
     4    1   30 1
     5    2    8 1
     6    2   12 1
     7    2    3 1
     8    3    4 1
     9    3   31 1
    10    3   32 1
    11    4    5 1
    12    4   33 1
    13    4   34 1
    14    5    6 1
    15    5    7 1
    16    5   27 1
    17    7    8 1
    18    7   35 1
    19    7   36 1
    20    8    9 2
    21    9   10 1
    22    9   37 1
    23   10   11 1
    24   10   38 1
    25   10   39 1
    26   11   16 1
    27   11   12 1
    28   11   40 1
    29   12   13 1
    30   12   41 1
    31   13   14 1
    32   13   42 1
    33   13   43 1
    34   14   15 1
    35   14   44 1
    36   14   45 1
    37   15   19 1
    38   15   16 1
    39   15   26 1
    40   16   17 1
    41   16   46 1
    42   17   18 1
    43   17   47 1
    44   17   48 1
    45   18   19 2
    46   18   49 1
    47   19   20 1
    48   20   25 ar
    49   20   21 ar
    50   21   22 ar
    51   21   50 1
    52   22   23 ar
    53   23   24 ar
    54   23   51 1
    55   24   25 ar
    56   24   52 1
    57   26   53 1
    58   26   54 1
    59   26   55 1
    60   27   56 1
@<TRIPOS>MOLECULE
CHEMBL224654
   87    91     0     0     0
SMALL
USER_CHARGES

@<TRIPOS>ATOM
      1 C1         -0.1018    1.8780    0.2146 C.3       1 <0>        -0.1326
      2 C2         -0.0937    0.3558    0.0606 C.3       1 <0>        -0.0565
      3 C3         -1.5139   -0.1722    0.1131 C.3       1 <0>        -0.1034
      4 C4         -2.1432    0.3380    1.4204 C.3       1 <0>        -0.1193
      5 C5         -1.3326   -0.0986    2.6359 C.3       1 <0>        -0.0675
      6 H1         -1.3688   -1.1854    2.7111 H         1 <0>         0.0673
      7 C6          0.1346    0.3420    2.5263 C.3       1 <0>        -0.0694
      8 H2          0.1943    1.4296    2.4860 H         1 <0>         0.0883
      9 C7          0.6843   -0.2871    1.2408 C.3       1 <0>        -0.0808
     10 H3          0.5422   -1.3677    1.2477 H         1 <0>         0.0755
     11 C8          2.1318    0.0753    0.8909 C.3       1 <0>        -0.1159
     12 C9          2.1889   -0.1630   -0.6428 C.3       1 <0>        -0.1601
     13 C10         0.7341   -0.0346   -1.1593 C.3       1 <0>         0.1098
     14 H4          0.3899   -0.9882   -1.5598 H         1 <0>         0.0552
     15 O1          0.6517    0.9825   -2.1597 O.3       1 <0>        -0.5601
     16 C11         0.8988   -0.1776    3.7458 C.3       1 <0>        -0.0778
     17 C12         0.2914    0.4243    5.0134 C.3       1 <0>        -0.1133
     18 C13        -1.1793    0.0158    5.1303 C.3       1 <0>        -0.0647
     19 H5         -1.2516   -1.0691    5.2079 H         1 <0>         0.0752
     20 C14        -1.9350    0.5044    3.9070 C.3       1 <0>        -0.0511
     21 C15        -3.4011    0.0739    4.0086 C.3       1 <0>        -0.1082
     22 C16        -4.0482    0.7368    5.2280 C.3       1 <0>        -0.1748
     23 C17        -3.2210    0.3970    6.4486 C.2       1 <0>         0.3646
     24 O2         -3.7351   -0.0695    7.4367 O.2       1 <0>        -0.4596
     25 C18        -1.7673    0.6611    6.3915 C.3       1 <0>        -0.1740
     26 C19        -1.8535    2.0306    3.8362 C.3       1 <0>        -0.1540
     27 C20         2.3694    0.2311    3.6398 C.3       1 <0>        -0.1323
     28 C21         3.1026   -0.1648    4.9230 C.3       1 <0>        -0.1231
     29 C22         4.5731    0.2440    4.8170 C.3       1 <0>        -0.1185
     30 C23         5.3063   -0.1519    6.1002 C.3       1 <0>        -0.1203
     31 C24         6.7769    0.2568    5.9942 C.3       1 <0>        -0.1193
     32 C25         7.5100   -0.1391    7.2774 C.3       1 <0>        -0.1053
     33 C26         8.9806    0.2697    7.1714 C.3       1 <0>        -0.1394
     34 C27         9.7027   -0.1203    8.4353 C.2       1 <0>         0.5155
     35 O3          9.1005   -0.6709    9.3326 O.2       1 <0>        -0.5356
     36 N1         11.0178    0.1429    8.5686 N.am      1 <0>        -0.6210
     37 C28        11.7683    0.8154    7.4963 C.3       1 <0>         0.0710
     38 C29        12.5380    1.9911    8.1088 C.3       1 <0>         0.0456
     39 O4         13.3031    1.5237    9.2224 O.3       1 <0>        -0.3780
     40 C30        12.5164    0.9933   10.2918 C.3       1 <0>         0.0474
     41 C31        11.7443   -0.2284    9.7933 C.3       1 <0>         0.0747
     42 H6          0.9232    2.2486    0.2153 H         1 <0>         0.0528
     43 H7         -0.6489    2.3242   -0.6159 H         1 <0>         0.0575
     44 H8         -0.5856    2.1456    1.1540 H         1 <0>         0.0611
     45 H9         -2.0798    0.2001   -0.7409 H         1 <0>         0.0646
     46 H10        -1.5049   -1.2621    0.1065 H         1 <0>         0.0610
     47 H11        -2.1873    1.4268    1.3936 H         1 <0>         0.0715
     48 H12        -3.1556   -0.0567    1.5065 H         1 <0>         0.0639
     49 H13         2.3357    1.1198    1.1268 H         1 <0>         0.0722
     50 H14         2.8300   -0.5817    1.4095 H         1 <0>         0.0762
     51 H15         2.8212    0.5889   -1.1150 H         1 <0>         0.0712
     52 H16         2.5736   -1.1611   -0.8523 H         1 <0>         0.0654
     53 H17         1.1590    0.7891   -2.9599 H         1 <0>         0.3744
     54 H18         0.8240   -1.2643    3.7867 H         1 <0>         0.0681
     55 H19         0.8381    0.0624    5.8841 H         1 <0>         0.0681
     56 H20         0.3629    1.5110    4.9684 H         1 <0>         0.0679
     57 H21        -3.9318    0.3775    3.1062 H         1 <0>         0.0799
     58 H22        -3.4547   -1.0097    4.1135 H         1 <0>         0.0663
     59 H23        -4.0716    1.8177    5.0894 H         1 <0>         0.0998
     60 H24        -5.0630    0.3602    5.3556 H         1 <0>         0.0861
     61 H25        -1.2905    0.2369    7.2751 H         1 <0>         0.0880
     62 H26        -1.5978    1.7375    6.3640 H         1 <0>         0.1033
     63 H27        -2.4092    2.3842    2.9678 H         1 <0>         0.0605
     64 H28        -2.2826    2.4598    4.7416 H         1 <0>         0.0568
     65 H29        -0.8105    2.3351    3.7488 H         1 <0>         0.0648
     66 H30         2.8267   -0.2746    2.7893 H         1 <0>         0.0834
     67 H31         2.4375    1.3100    3.5005 H         1 <0>         0.0596
     68 H32         2.6453    0.3409    5.7735 H         1 <0>         0.0632
     69 H33         3.0345   -1.2437    5.0623 H         1 <0>         0.0588
     70 H34         5.0304   -0.2617    3.9665 H         1 <0>         0.0590
     71 H35         4.6413    1.3229    4.6777 H         1 <0>         0.0595
     72 H36         4.8491    0.3538    6.9507 H         1 <0>         0.0614
     73 H37         5.2382   -1.2308    6.2395 H         1 <0>         0.0615
     74 H38         7.2341   -0.2489    5.1437 H         1 <0>         0.0617
     75 H39         6.8450    1.3357    5.8549 H         1 <0>         0.0616
     76 H40         7.0528    0.3666    8.1279 H         1 <0>         0.0695
     77 H41         7.4419   -1.2180    7.4167 H         1 <0>         0.0698
     78 H42         9.4379   -0.2361    6.3209 H         1 <0>         0.0940
     79 H43         9.0487    1.3486    7.0321 H         1 <0>         0.0931
     80 H44        12.4689    0.1141    7.0430 H         1 <0>         0.0807
     81 H45        11.0760    1.1843    6.7394 H         1 <0>         0.0969
     82 H46        13.2066    2.4176    7.3611 H         1 <0>         0.1091
     83 H47        11.8336    2.7519    8.4448 H         1 <0>         0.0571
     84 H48        13.1694    0.7021   11.1145 H         1 <0>         0.1092
     85 H49        11.8119    1.7506   10.6357 H         1 <0>         0.0563
     86 H50        11.0362   -0.5504   10.5568 H         1 <0>         0.1024
     87 H51        12.4425   -1.0365    9.5752 H         1 <0>         0.0765
@<TRIPOS>BOND
     1    1    2 1
     2    1   42 1
     3    1   43 1
     4    1   44 1
     5    2    9 1
     6    2   13 1
     7    2    3 1
     8    3    4 1
     9    3   45 1
    10    3   46 1
    11    4    5 1
    12    4   47 1
    13    4   48 1
    14    5    6 1
    15    5   20 1
    16    5    7 1
    17    7    8 1
    18    7    9 1
    19    7   16 1
    20    9   10 1
    21    9   11 1
    22   11   12 1
    23   11   49 1
    24   11   50 1
    25   12   13 1
    26   12   51 1
    27   12   52 1
    28   13   14 1
    29   13   15 1
    30   15   53 1
    31   16   17 1
    32   16   27 1
    33   16   54 1
    34   17   18 1
    35   17   55 1
    36   17   56 1
    37   18   19 1
    38   18   25 1
    39   18   20 1
    40   20   21 1
    41   20   26 1
    42   21   22 1
    43   21   57 1
    44   21   58 1
    45   22   23 1
    46   22   59 1
    47   22   60 1
    48   23   24 2
    49   23   25 1
    50   25   61 1
    51   25   62 1
    52   26   63 1
    53   26   64 1
    54   26   65 1
    55   27   28 1
    56   27   66 1
    57   27   67 1
    58   28   29 1
    59   28   68 1
    60   28   69 1
    61   29   30 1
    62   29   70 1
    63   29   71 1
    64   30   31 1
    65   30   72 1
    66   30   73 1
    67   31   32 1
    68   31   74 1
    69   31   75 1
    70   32   33 1
    71   32   76 1
    72   32   77 1
    73   33   34 1
    74   33   78 1
    75   33   79 1
    76   34   35 2
    77   34   36 am
    78   36   41 1
    79   36   37 1
    80   37   38 1
    81   37   80 1
    82   37   81 1
    83   38   39 1
    84   38   82 1
    85   38   83 1
    86   39   40 1
    87   40   41 1
    88   40   84 1
    89   40   85 1
    90   41   86 1
    91   41   87 1
@<TRIPOS>MOLECULE
CHEMBL224654__1
   87    91     0     0     0
SMALL
USER_CHARGES

@<TRIPOS>ATOM
      1 C1         -0.0187    1.5258    0.0104 C.3       1 <0>        -0.1331
      2 C2          0.0021   -0.0041    0.0020 C.3       1 <0>        -0.0571
      3 C3         -1.4161   -0.5361    0.0674 C.3       1 <0>        -0.1028
      4 C4         -2.0828    0.0906    1.3034 C.3       1 <0>        -0.1199
      5 C5         -1.3025   -0.2223    2.5757 C.3       1 <0>        -0.0690
      6 H1         -1.3347   -1.2973    2.7528 H         1 <0>         0.0718
      7 C6          0.1645    0.2178    2.4629 C.3       1 <0>        -0.0696
      8 H2          0.2192    1.2972    2.3211 H         1 <0>         0.0873
      9 C7          0.7519   -0.5258    1.2577 C.3       1 <0>        -0.0819
     10 H3          0.6157   -1.6021    1.3636 H         1 <0>         0.0791
     11 C8          2.2062   -0.1865    0.9129 C.3       1 <0>        -0.1122
     12 C9          2.3055   -0.5687   -0.5893 C.3       1 <0>        -0.1572
     13 C10         0.8643   -0.5016   -1.1533 C.3       1 <0>         0.1100
     14 H4          0.5363   -1.4916   -1.4703 H         1 <0>         0.0553
     15 O1          0.8030    0.4153   -2.2476 O.3       1 <0>        -0.5601
     16 C11         0.8988   -0.1776    3.7458 C.3       1 <0>        -0.0790
     17 C12         0.2544    0.5368    4.9342 C.3       1 <0>        -0.1131
     18 C13        -1.2166    0.1293    5.0511 C.3       1 <0>        -0.0644
     19 H5         -1.2848   -0.9438    5.2295 H         1 <0>         0.0795
     20 C14        -1.9420    0.4937    3.7676 C.3       1 <0>        -0.0508
     21 C15        -3.4079    0.0629    3.8714 C.3       1 <0>        -0.1078
     22 C16        -4.0910    0.8331    5.0051 C.3       1 <0>        -0.1750
     23 C17        -3.2949    0.6173    6.2736 C.2       1 <0>         0.3648
     24 O2         -3.8325    0.2424    7.2878 O.2       1 <0>        -0.4597
     25 C18        -1.8417    0.8866    6.2295 C.3       1 <0>        -0.1749
     26 C19        -1.8672    2.0069    3.5543 C.3       1 <0>        -0.1543
     27 C20         0.8008   -1.6914    3.9450 C.3       1 <0>        -0.1189
     28 C21         1.6386   -2.1015    5.1578 C.3       1 <0>        -0.1213
     29 C22         1.5406   -3.6153    5.3570 C.3       1 <0>        -0.1186
     30 C23         2.3784   -4.0254    6.5698 C.3       1 <0>        -0.1199
     31 C24         2.2804   -5.5392    6.7690 C.3       1 <0>        -0.1195
     32 C25         3.1182   -5.9493    7.9818 C.3       1 <0>        -0.1052
     33 C26         3.0202   -7.4631    8.1810 C.3       1 <0>        -0.1395
     34 C27         3.8454   -7.8671    9.3756 C.2       1 <0>         0.5156
     35 O3          4.4521   -7.0269   10.0055 O.2       1 <0>        -0.5356
     36 N1          3.9091   -9.1620    9.7438 N.am      1 <0>        -0.6210
     37 C28         3.1866  -10.1999    8.9914 C.3       1 <0>         0.0710
     38 C29         4.1690  -11.3293    8.6606 C.3       1 <0>         0.0456
     39 O4          4.8207  -11.7527    9.8605 O.3       1 <0>        -0.3779
     40 C30         5.6120  -10.7393   10.4856 C.3       1 <0>         0.0475
     41 C31         4.7081   -9.5804   10.9065 C.3       1 <0>         0.0747
     42 H6          1.0039    1.9031    0.0027 H         1 <0>         0.0527
     43 H7         -0.5459    1.8868   -0.8726 H         1 <0>         0.0575
     44 H8         -0.5289    1.8773    0.9072 H         1 <0>         0.0613
     45 H9         -1.9610   -0.2510   -0.8325 H         1 <0>         0.0643
     46 H10        -1.4008   -1.6217    0.1646 H         1 <0>         0.0606
     47 H11        -2.1323    1.1715    1.1723 H         1 <0>         0.0712
     48 H12        -3.0949   -0.3023    1.4003 H         1 <0>         0.0635
     49 H13         2.3979    0.8772    1.0537 H         1 <0>         0.0695
     50 H14         2.8939   -0.7857    1.5096 H         1 <0>         0.0651
     51 H15         2.9460    0.1401   -1.1141 H         1 <0>         0.0713
     52 H16         2.7012   -1.5790   -0.6929 H         1 <0>         0.0654
     53 H17         1.3325    0.1511   -3.0123 H         1 <0>         0.3745
     54 H18         1.9465    0.1136    3.6703 H         1 <0>         0.0720
     55 H19         0.7797    0.2635    5.8494 H         1 <0>         0.0665
     56 H20         0.3210    1.6150    4.7881 H         1 <0>         0.0670
     57 H21        -3.9160    0.2752    2.9308 H         1 <0>         0.0798
     58 H22        -3.4582   -1.0063    4.0773 H         1 <0>         0.0659
     59 H23        -4.1167    1.8958    4.7639 H         1 <0>         0.0998
     60 H24        -5.1068    0.4621    5.1413 H         1 <0>         0.0859
     61 H25        -1.3863    0.5518    7.1616 H         1 <0>         0.0877
     62 H26        -1.6775    1.9568    6.1043 H         1 <0>         0.1030
     63 H27        -2.4015    2.2720    2.6420 H         1 <0>         0.0605
     64 H28        -2.3227    2.5165    4.4034 H         1 <0>         0.0567
     65 H29        -0.8240    2.3101    3.4655 H         1 <0>         0.0647
     66 H30        -0.2399   -1.9693    4.1116 H         1 <0>         0.0663
     67 H31         1.1749   -2.1998    3.0564 H         1 <0>         0.0634
     68 H32         2.6793   -1.8236    4.9912 H         1 <0>         0.0593
     69 H33         1.2646   -1.5931    6.0465 H         1 <0>         0.0627
     70 H34         0.4999   -3.8933    5.5236 H         1 <0>         0.0591
     71 H35         1.9147   -4.1237    4.4684 H         1 <0>         0.0590
     72 H36         3.4191   -3.7475    6.4032 H         1 <0>         0.0615
     73 H37         2.0043   -3.5170    7.4585 H         1 <0>         0.0618
     74 H38         1.2397   -5.8172    6.9356 H         1 <0>         0.0618
     75 H39         2.6545   -6.0476    5.8803 H         1 <0>         0.0614
     76 H40         4.1589   -5.6714    7.8152 H         1 <0>         0.0695
     77 H41         2.7441   -5.4410    8.8705 H         1 <0>         0.0700
     78 H42         1.9794   -7.7411    8.3476 H         1 <0>         0.0940
     79 H43         3.3942   -7.9715    7.2923 H         1 <0>         0.0930
     80 H44         2.3689  -10.5903    9.5972 H         1 <0>         0.0807
     81 H45         2.7906   -9.7758    8.0687 H         1 <0>         0.0969
     82 H46         3.6259  -12.1684    8.2257 H         1 <0>         0.1091
     83 H47         4.9127  -10.9685    7.9501 H         1 <0>         0.0570
     84 H48         6.1072  -11.1540   11.3637 H         1 <0>         0.1092
     85 H49         6.3610  -10.3764    9.7817 H         1 <0>         0.0563
     86 H50         5.3192   -8.7463   11.2513 H         1 <0>         0.1024
     87 H51         4.0462   -9.9074   11.7083 H         1 <0>         0.0766
@<TRIPOS>BOND
     1    1    2 1
     2    1   42 1
     3    1   43 1
     4    1   44 1
     5    2    9 1
     6    2   13 1
     7    2    3 1
     8    3    4 1
     9    3   45 1
    10    3   46 1
    11    4    5 1
    12    4   47 1
    13    4   48 1
    14    5    6 1
    15    5   20 1
    16    5    7 1
    17    7    8 1
    18    7    9 1
    19    7   16 1
    20    9   10 1
    21    9   11 1
    22   11   12 1
    23   11   49 1
    24   11   50 1
    25   12   13 1
    26   12   51 1
    27   12   52 1
    28   13   14 1
    29   13   15 1
    30   15   53 1
    31   16   17 1
    32   16   27 1
    33   16   54 1
    34   17   18 1
    35   17   55 1
    36   17   56 1
    37   18   19 1
    38   18   25 1
    39   18   20 1
    40   20   21 1
    41   20   26 1
    42   21   22 1
    43   21   57 1
    44   21   58 1
    45   22   23 1
    46   22   59 1
    47   22   60 1
    48   23   24 2
    49   23   25 1
    50   25   61 1
    51   25   62 1
    52   26   63 1
    53   26   64 1
    54   26   65 1
    55   27   28 1
    56   27   66 1
    57   27   67 1
    58   28   29 1
    59   28   68 1
    60   28   69 1
    61   29   30 1
    62   29   70 1
    63   29   71 1
    64   30   31 1
    65   30   72 1
    66   30   73 1
    67   31   32 1
    68   31   74 1
    69   31   75 1
    70   32   33 1
    71   32   76 1
    72   32   77 1
    73   33   34 1
    74   33   78 1
    75   33   79 1
    76   34   35 2
    77   34   36 am
    78   36   41 1
    79   36   37 1
    80   37   38 1
    81   37   80 1
    82   37   81 1
    83   38   39 1
    84   38   82 1
    85   38   83 1
    86   39   40 1
    87   40   41 1
    88   40   84 1
    89   40   85 1
    90   41   86 1
    91   41   87 1
@<TRIPOS>MOLECULE
CHEMBL156312
   40    43     0     0     0
SMALL
USER_CHARGES

@<TRIPOS>ATOM
      1 C1         -0.0187    1.5258    0.0104 C.3       1 <0>        -0.1568
      2 C2          0.0021   -0.0041    0.0020 C.3       1 <0>         0.1581
      3 C3         -1.4294   -0.5610    0.0547 C.3       1 <0>        -0.1231
      4 C4         -1.3572   -1.6743    1.1335 C.3       1 <0>        -0.1344
      5 C5         -0.2745   -1.1134    2.0963 C.3       1 <0>         0.1134
      6 N1          0.7126   -0.5186    1.1913 N.pl3     1 <0>        -0.6163
      7 C6          2.0942   -0.4519    1.3182 C.ar      1 <0>         0.3080
      8 C7          2.7018   -0.6266    2.5484 C.ar      1 <0>        -0.2476
      9 C8          4.0848   -0.5649    2.6483 C.ar      1 <0>         0.2461
     10 C9          4.8509   -0.3274    1.4896 C.ar      1 <0>        -0.1709
     11 C10         4.2147   -0.1493    0.2554 C.ar      1 <0>        -0.0175
     12 C11         2.8514   -0.2038    0.1673 C.ar      1 <0>        -0.1609
     13 C12         2.1991    0.0223   -1.1701 C.3       1 <0>        -0.0740
     14 C13         0.7718   -0.5223   -1.2162 C.3       1 <0>        -0.1233
     15 C14         6.2650   -0.2704    1.5934 C.2       1 <0>        -0.0568
     16 C15         6.8470   -0.4422    2.8059 C.2       1 <0>        -0.1740
     17 C16         6.0566   -0.6754    3.9500 C.2       1 <0>         0.5414
     18 N2          4.7143   -0.7341    3.8642 N.am      1 <0>        -0.6236
     19 O1          6.5964   -0.8256    5.0327 O.2       1 <0>        -0.5247
     20 C17         7.1098   -0.0223    0.3703 C.3       1 <0>         0.5057
     21 F1          8.4613   -0.0115    0.7315 F         1 <0>        -0.1685
     22 F2          6.8853   -1.0378   -0.5653 F         1 <0>        -0.1678
     23 F3          6.7670    1.2126   -0.1905 F         1 <0>        -0.1678
     24 H1          1.0039    1.9031    0.0027 H         1 <0>         0.0634
     25 H2         -0.5459    1.8868   -0.8726 H         1 <0>         0.0702
     26 H3         -0.5289    1.8773    0.9072 H         1 <0>         0.0602
     27 H4         -2.1316    0.2169    0.3543 H         1 <0>         0.0808
     28 H5         -1.7119   -0.9815   -0.9104 H         1 <0>         0.0837
     29 H6         -2.3137   -1.7850    1.6443 H         1 <0>         0.0857
     30 H7         -1.0382   -2.6206    0.6967 H         1 <0>         0.0766
     31 H8         -0.7003   -0.3542    2.7523 H         1 <0>         0.0689
     32 H9          0.1746   -1.9176    2.6791 H         1 <0>         0.0773
     33 H10         2.1025   -0.8107    3.4278 H         1 <0>         0.1357
     34 H11         4.8037    0.0321   -0.6315 H         1 <0>         0.1341
     35 H12         2.1761    1.0924   -1.3760 H         1 <0>         0.0783
     36 H13         2.7912   -0.4718   -1.9404 H         1 <0>         0.0799
     37 H14         0.7962   -1.6118   -1.1961 H         1 <0>         0.0721
     38 H15         0.2814   -0.1836   -2.1288 H         1 <0>         0.0809
     39 H16         7.9225   -0.4006    2.8958 H         1 <0>         0.1675
     40 H17         4.1867   -0.8963    4.6618 H         1 <0>         0.4200
@<TRIPOS>BOND
     1    1    2 1
     2    1   24 1
     3    1   25 1
     4    1   26 1
     5    2    6 1
     6    2   14 1
     7    2    3 1
     8    3    4 1
     9    3   27 1
    10    3   28 1
    11    4    5 1
    12    4   29 1
    13    4   30 1
    14    5    6 1
    15    5   31 1
    16    5   32 1
    17    6    7 1
    18    7   12 ar
    19    7    8 ar
    20    8    9 ar
    21    8   33 1
    22    9   18 1
    23    9   10 ar
    24   10   11 ar
    25   10   15 1
    26   11   12 ar
    27   11   34 1
    28   12   13 1
    29   13   14 1
    30   13   35 1
    31   13   36 1
    32   14   37 1
    33   14   38 1
    34   15   16 2
    35   15   20 1
    36   16   17 1
    37   16   39 1
    38   17   18 am
    39   17   19 2
    40   18   40 1
    41   20   21 1
    42   20   22 1
    43   20   23 1
@<TRIPOS>MOLECULE
CHEMBL156312__1
   40    43     0     0     0
SMALL
USER_CHARGES

@<TRIPOS>ATOM
      1 C1         -0.0187    1.5258    0.0104 C.3       1 <0>        -0.1552
      2 C2          0.0021   -0.0041    0.0020 C.3       1 <0>         0.1580
      3 C3          0.7657   -0.5325   -1.2240 C.3       1 <0>        -0.1226
      4 C4          2.2193   -0.6315   -0.6810 C.3       1 <0>        -0.1315
      5 C5          1.9854   -1.1150    0.7722 C.3       1 <0>         0.1144
      6 N1          0.7113   -0.5270    1.1889 N.pl3     1 <0>        -0.6173
      7 C6          0.1479   -0.4825    2.4602 C.ar      1 <0>         0.3061
      8 C7          0.9333   -0.6452    3.5868 C.ar      1 <0>        -0.2457
      9 C8          0.3479   -0.6075    4.8448 C.ar      1 <0>         0.2452
     10 C9         -1.0426   -0.4056    4.9533 C.ar      1 <0>        -0.1700
     11 C10        -1.8173   -0.2392    3.7992 C.ar      1 <0>        -0.0181
     12 C11        -1.2316   -0.2711    2.5639 C.ar      1 <0>        -0.1599
     13 C12        -2.0914   -0.0604    1.3466 C.3       1 <0>        -0.0739
     14 C13        -1.4202   -0.5667    0.0700 C.3       1 <0>        -0.1240
     15 C14        -1.6399   -0.3725    6.2401 C.2       1 <0>        -0.0572
     16 C15        -0.8588   -0.5327    7.3368 C.2       1 <0>        -0.1733
     17 C16         0.5306   -0.7307    7.1997 C.2       1 <0>         0.5413
     18 N2          1.1090   -0.7658    5.9844 N.am      1 <0>        -0.6235
     19 O1          1.2182   -0.8717    8.1964 O.2       1 <0>        -0.5246
     20 C17        -3.1249   -0.1612    6.3860 C.3       1 <0>         0.5057
     21 F1         -3.4658   -0.1686    7.7429 F         1 <0>        -0.1685
     22 F2         -3.4784    1.0698    5.8231 F         1 <0>        -0.1678
     23 F3         -3.8090   -1.1887    5.7277 F         1 <0>        -0.1677
     24 H1          1.0039    1.9031    0.0027 H         1 <0>         0.0606
     25 H2         -0.5459    1.8868   -0.8726 H         1 <0>         0.0699
     26 H3         -0.5289    1.8773    0.9072 H         1 <0>         0.0636
     27 H4          0.3937   -1.5129   -1.5216 H         1 <0>         0.0801
     28 H5          0.7070    0.1727   -2.0530 H         1 <0>         0.0871
     29 H6          2.7975   -1.3623   -1.2465 H         1 <0>         0.0868
     30 H7          2.7071    0.3432   -0.6936 H         1 <0>         0.0784
     31 H8          1.9247   -2.2030    0.8012 H         1 <0>         0.0652
     32 H9          2.7902   -0.7654    1.4188 H         1 <0>         0.0691
     33 H10         1.9974   -0.8013    3.4883 H         1 <0>         0.1359
     34 H11        -2.8828   -0.0850    3.8849 H         1 <0>         0.1342
     35 H12        -3.0345   -0.5892    1.4839 H         1 <0>         0.0800
     36 H13        -2.2975    1.0046    1.2393 H         1 <0>         0.0783
     37 H14        -1.9874   -0.2315   -0.7984 H         1 <0>         0.0813
     38 H15        -1.3817   -1.6559    0.0850 H         1 <0>         0.0721
     39 H16        -1.3033   -0.5089    8.3208 H         1 <0>         0.1677
     40 H17         2.0662   -0.9037    5.9097 H         1 <0>         0.4200
@<TRIPOS>BOND
     1    1    2 1
     2    1   24 1
     3    1   25 1
     4    1   26 1
     5    2    6 1
     6    2   14 1
     7    2    3 1
     8    3    4 1
     9    3   27 1
    10    3   28 1
    11    4    5 1
    12    4   29 1
    13    4   30 1
    14    5    6 1
    15    5   31 1
    16    5   32 1
    17    6    7 1
    18    7   12 ar
    19    7    8 ar
    20    8    9 ar
    21    8   33 1
    22    9   18 1
    23    9   10 ar
    24   10   11 ar
    25   10   15 1
    26   11   12 ar
    27   11   34 1
    28   12   13 1
    29   13   14 1
    30   13   35 1
    31   13   36 1
    32   14   37 1
    33   14   38 1
    34   15   16 2
    35   15   20 1
    36   16   17 1
    37   16   39 1
    38   17   18 am
    39   17   19 2
    40   18   40 1
    41   20   21 1
    42   20   22 1
    43   20   23 1
@<TRIPOS>MOLECULE
CHEMBL1164752
   50    52     0     0     0
SMALL
USER_CHARGES

@<TRIPOS>ATOM
      1 C1          0.6822    0.1982   -2.5946 C.ar      1 <0>        -0.0545
      2 C2          1.9200    0.4602   -3.1412 C.ar      1 <0>        -0.1019
      3 C3          2.9481   -0.4588   -3.0086 C.ar      1 <0>        -0.0617
      4 C4          2.7410   -1.6464   -2.3262 C.ar      1 <0>        -0.1033
      5 C5          1.5085   -1.9221   -1.7742 C.ar      1 <0>        -0.0688
      6 C6          0.4655   -0.9989   -1.9041 C.ar      1 <0>        -0.1579
      7 C7         -0.8527   -1.2856   -1.3173 C.2       1 <0>         0.3934
      8 O1         -1.7547   -0.4833   -1.4317 O.2       1 <0>        -0.4306
      9 C8         -1.0820   -2.5765   -0.5742 C.3       1 <0>        -0.1803
     10 C9         -2.5254   -2.6246   -0.0691 C.3       1 <0>         0.1567
     11 C10        -2.7236   -3.8748    0.7903 C.3       1 <0>        -0.1011
     12 C11        -2.5711   -5.1226   -0.0819 C.3       1 <0>        -0.1150
     13 C12        -2.7693   -6.3729    0.7775 C.3       1 <0>        -0.1189
     14 C13        -4.1688   -6.3504    1.3954 C.3       1 <0>        -0.1208
     15 C14        -4.3213   -5.1026    2.2676 C.3       1 <0>        -0.1196
     16 C15        -4.1231   -3.8524    1.4082 C.3       1 <0>        -0.1145
     17 N1         -3.4415   -2.6671   -1.2116 N.pl3     1 <0>        -0.7138
     18 C16        -4.6246   -1.9251   -1.1861 C.ar      1 <0>         0.2836
     19 C17        -4.9918   -1.2398   -0.0349 C.ar      1 <0>        -0.1938
     20 C18        -6.1620   -0.5068   -0.0133 C.ar      1 <0>        -0.0053
     21 C19        -6.9679   -0.4546   -1.1358 C.ar      1 <0>        -0.1137
     22 C20        -6.6053   -1.1356   -2.2834 C.ar      1 <0>        -0.0044
     23 C21        -5.4338   -1.8662   -2.3136 C.ar      1 <0>        -0.1979
     24 N2         -8.2216    0.3317   -1.1088 N.pl3     1 <0>         0.0460
     25 O2         -8.5401    0.9273   -0.1061 O.2       1 <0>        -0.1759
     26 O3         -8.9271    0.3783   -2.0894 O.3       1 <0>        -0.1764
     27 Br1         4.6424   -0.0905   -3.7633 Br        1 <0>        -0.0361
     28 H1         -0.1173    0.9174   -2.6952 H         1 <0>         0.1430
     29 H2          2.0888    1.3840   -3.6746 H         1 <0>         0.1411
     30 H3          3.5471   -2.3582   -2.2267 H         1 <0>         0.1413
     31 H4          1.3483   -2.8487   -1.2430 H         1 <0>         0.1414
     32 H5         -0.9031   -3.4178   -1.2437 H         1 <0>         0.1089
     33 H6         -0.3985   -2.6344    0.2729 H         1 <0>         0.1176
     34 H7         -2.7310   -1.7365    0.5286 H         1 <0>         0.0988
     35 H8         -1.9764   -3.8926    1.5837 H         1 <0>         0.0839
     36 H9         -3.3183   -5.1049   -0.8753 H         1 <0>         0.0642
     37 H10        -1.5741   -5.1386   -0.5221 H         1 <0>         0.0623
     38 H11        -2.6607   -7.2618    0.1561 H         1 <0>         0.0617
     39 H12        -2.0221   -6.3906    1.5709 H         1 <0>         0.0623
     40 H13        -4.9160   -6.3327    0.6020 H         1 <0>         0.0600
     41 H14        -4.3100   -7.2411    2.0076 H         1 <0>         0.0612
     42 H15        -5.3183   -5.0867    2.7078 H         1 <0>         0.0624
     43 H16        -3.5740   -5.1204    3.0609 H         1 <0>         0.0619
     44 H17        -4.2317   -2.9635    2.0296 H         1 <0>         0.0622
     45 H18        -4.8703   -3.8347    0.6148 H         1 <0>         0.0668
     46 H19        -3.2263   -3.2105   -1.9857 H         1 <0>         0.4038
     47 H20        -4.3630   -1.2805    0.8422 H         1 <0>         0.1430
     48 H21        -6.4483    0.0260    0.8815 H         1 <0>         0.1490
     49 H22        -7.2371   -1.0930   -3.1583 H         1 <0>         0.1495
     50 H23        -5.1491   -2.3945   -3.2115 H         1 <0>         0.1402
@<TRIPOS>BOND
     1    1    6 ar
     2    1    2 ar
     3    1   28 1
     4    2    3 ar
     5    2   29 1
     6    3    4 ar
     7    3   27 1
     8    4    5 ar
     9    4   30 1
    10    5    6 ar
    11    5   31 1
    12    6    7 1
    13    7    8 2
    14    7    9 1
    15    9   10 1
    16    9   32 1
    17    9   33 1
    18   10   11 1
    19   10   17 1
    20   10   34 1
    21   11   16 1
    22   11   12 1
    23   11   35 1
    24   12   13 1
    25   12   36 1
    26   12   37 1
    27   13   14 1
    28   13   38 1
    29   13   39 1
    30   14   15 1
    31   14   40 1
    32   14   41 1
    33   15   16 1
    34   15   42 1
    35   15   43 1
    36   16   44 1
    37   16   45 1
    38   17   18 1
    39   17   46 1
    40   18   23 ar
    41   18   19 ar
    42   19   20 ar
    43   19   47 1
    44   20   21 ar
    45   20   48 1
    46   21   22 ar
    47   21   24 1
    48   22   23 ar
    49   22   49 1
    50   23   50 1
    51   24   25 2
    52   24   26 1
@<TRIPOS>MOLECULE
CHEMBL1164752__1
   50    52     0     0     0
SMALL
USER_CHARGES

@<TRIPOS>ATOM
      1 C1          0.6768    0.8883    0.5952 C.ar      1 <0>        -0.0545
      2 C2          1.9630    1.3691    0.7140 C.ar      1 <0>        -0.1019
      3 C3          3.0391    0.4982    0.6630 C.ar      1 <0>        -0.0618
      4 C4          2.8316   -0.8609    0.4930 C.ar      1 <0>        -0.1032
      5 C5          1.5510   -1.3562    0.3728 C.ar      1 <0>        -0.0689
      6 C6          0.4594   -0.4829    0.4233 C.ar      1 <0>        -0.1578
      7 C7         -0.9104   -1.0038    0.2962 C.2       1 <0>         0.3938
      8 O1         -1.8546   -0.2442    0.3405 O.2       1 <0>        -0.4309
      9 C8         -1.1404   -2.4816    0.1111 C.3       1 <0>        -0.1821
     10 C9         -2.6422   -2.7550    0.0069 C.3       1 <0>         0.1565
     11 C10        -2.8707   -4.2353   -0.3051 C.3       1 <0>        -0.0996
     12 C11        -2.2777   -4.5648   -1.6765 C.3       1 <0>        -0.1166
     13 C12        -2.5063   -6.0451   -1.9886 C.3       1 <0>        -0.1184
     14 C13        -4.0079   -6.3384   -1.9984 C.3       1 <0>        -0.1221
     15 C14        -4.6008   -6.0088   -0.6270 C.3       1 <0>        -0.1195
     16 C15        -4.3723   -4.5285   -0.3149 C.3       1 <0>        -0.1120
     17 N1         -3.2891   -2.4182    1.2775 N.pl3     1 <0>        -0.7173
     18 C16        -4.4903   -1.7055    1.2822 C.ar      1 <0>         0.2843
     19 C17        -5.1551   -1.4538    0.0887 C.ar      1 <0>        -0.1921
     20 C18        -6.3428   -0.7492    0.0969 C.ar      1 <0>        -0.0054
     21 C19        -6.8705   -0.2943    1.2915 C.ar      1 <0>        -0.1131
     22 C20        -6.2113   -0.5431    2.4814 C.ar      1 <0>        -0.0046
     23 C21        -5.0258   -1.2517    2.4809 C.ar      1 <0>        -0.1972
     24 N2         -8.1433    0.4609    1.2965 N.pl3     1 <0>         0.0460
     25 O2         -8.7205    0.6795    0.2569 O.2       1 <0>        -0.1757
     26 O3         -8.6058    0.8592    2.3401 O.3       1 <0>        -0.1761
     27 Br1         4.8000    1.1680    0.8257 Br        1 <0>        -0.0361
     28 H1         -0.1614    1.5679    0.6393 H         1 <0>         0.1430
     29 H2          2.1324    2.4274    0.8468 H         1 <0>         0.1411
     30 H3          3.6754   -1.5339    0.4542 H         1 <0>         0.1414
     31 H4          1.3908   -2.4159    0.2395 H         1 <0>         0.1413
     32 H5         -0.6463   -2.8147   -0.8015 H         1 <0>         0.1191
     33 H6         -0.7310   -3.0227    0.9642 H         1 <0>         0.1072
     34 H7         -3.0679   -2.1456   -0.7903 H         1 <0>         0.0992
     35 H8         -2.3862   -4.8462    0.4565 H         1 <0>         0.0773
     36 H9         -2.7623   -3.9539   -2.4382 H         1 <0>         0.0657
     37 H10        -1.2080   -4.3559   -1.6695 H         1 <0>         0.0655
     38 H11        -2.0838   -6.2799   -2.9656 H         1 <0>         0.0639
     39 H12        -2.0217   -6.6560   -1.2269 H         1 <0>         0.0621
     40 H13        -4.4924   -5.7275   -2.7601 H         1 <0>         0.0621
     41 H14        -4.1707   -7.3930   -2.2207 H         1 <0>         0.0618
     42 H15        -5.6706   -6.2177   -0.6340 H         1 <0>         0.0622
     43 H16        -4.1163   -6.6197    0.1347 H         1 <0>         0.0606
     44 H17        -4.7947   -4.2937    0.6621 H         1 <0>         0.0646
     45 H18        -4.8568   -3.9176   -1.0766 H         1 <0>         0.0630
     46 H19        -2.8833   -2.6902    2.1154 H         1 <0>         0.4039
     47 H20        -4.7434   -1.8084   -0.8447 H         1 <0>         0.1420
     48 H21        -6.8600   -0.5528   -0.8306 H         1 <0>         0.1491
     49 H22        -6.6259   -0.1862    3.4126 H         1 <0>         0.1497
     50 H23        -4.5137   -1.4493    3.4110 H         1 <0>         0.1406
@<TRIPOS>BOND
     1    1    6 ar
     2    1    2 ar
     3    1   28 1
     4    2    3 ar
     5    2   29 1
     6    3    4 ar
     7    3   27 1
     8    4    5 ar
     9    4   30 1
    10    5    6 ar
    11    5   31 1
    12    6    7 1
    13    7    8 2
    14    7    9 1
    15    9   10 1
    16    9   32 1
    17    9   33 1
    18   10   11 1
    19   10   17 1
    20   10   34 1
    21   11   16 1
    22   11   12 1
    23   11   35 1
    24   12   13 1
    25   12   36 1
    26   12   37 1
    27   13   14 1
    28   13   38 1
    29   13   39 1
    30   14   15 1
    31   14   40 1
    32   14   41 1
    33   15   16 1
    34   15   42 1
    35   15   43 1
    36   16   44 1
    37   16   45 1
    38   17   18 1
    39   17   46 1
    40   18   23 ar
    41   18   19 ar
    42   19   20 ar
    43   19   47 1
    44   20   21 ar
    45   20   48 1
    46   21   22 ar
    47   21   24 1
    48   22   23 ar
    49   22   49 1
    50   23   50 1
    51   24   25 2
    52   24   26 1
@<TRIPOS>MOLECULE
CHEMBL519169
   38    40     0     0     0
SMALL
USER_CHARGES

@<TRIPOS>ATOM
      1 C1         -2.5189   -0.8290   -1.2729 C.3       1 <0>        -0.1031
      2 C2         -1.1958   -1.1250   -0.6150 C.ar      1 <0>        -0.1182
      3 C3         -0.0058   -0.6964   -1.2128 C.ar      1 <0>         0.2192
      4 C4          1.2230   -0.9715   -0.6025 C.ar      1 <0>        -0.1571
      5 C5          1.2618   -1.6581    0.5763 C.ar      1 <0>        -0.0412
      6 C6          0.0723   -2.0871    1.1758 C.ar      1 <0>        -0.0565
      7 C7         -1.1585   -1.8070    0.5680 C.ar      1 <0>         0.0261
      8 Cl1        -2.6351   -2.3331    1.3141 Cl        1 <0>        -0.0525
      9 C8          0.1129   -2.8079    2.4124 C.1       1 <0>         0.2544
     10 N1          0.1451   -3.3798    3.3935 N.1       1 <0>        -0.4096
     11 N2         -0.0434   -0.0099   -2.3922 N.2       1 <0>        -0.6337
     12 C9          0.0772   -0.6543   -3.5322 C.2       1 <0>         0.6976
     13 N3          0.1137   -2.0167   -3.6342 N.pl3     1 <0>        -0.6413
     14 C10         0.1125   -2.3900   -5.0586 C.3       1 <0>         0.1003
     15 C11        -0.0578   -1.0577   -5.7938 C.3       1 <0>         0.0880
     16 H1         -1.0405   -0.9621   -6.2556 H         1 <0>         0.1122
     17 N4          0.1737   -0.0400   -4.7399 N.pl3     1 <0>        -0.6122
     18 C12         0.4943    1.1955   -5.4716 C.3       1 <0>         0.1670
     19 C13         1.1528    0.7585   -6.7983 C.3       1 <0>        -0.1701
     20 C14         1.0877   -0.8010   -6.7936 C.3       1 <0>         0.0964
     21 H2          0.8345   -1.1863   -7.7813 H         1 <0>         0.0847
     22 O1          2.3114   -1.3691   -6.3224 O.3       1 <0>        -0.5524
     23 C15         0.1492   -2.9538   -2.5087 C.3       1 <0>         0.0986
     24 H3         -2.8947    0.1305   -0.9177 H         1 <0>         0.0756
     25 H4         -2.3863   -0.7896   -2.3541 H         1 <0>         0.0658
     26 H5         -3.2327   -1.6139   -1.0228 H         1 <0>         0.0694
     27 H6          2.1413   -0.6406   -1.0648 H         1 <0>         0.1348
     28 H7          2.2105   -1.8706    1.0464 H         1 <0>         0.1400
     29 H8          1.0582   -2.8584   -5.3313 H         1 <0>         0.0953
     30 H9         -0.7218   -3.0563   -5.2778 H         1 <0>         0.0794
     31 H10        -0.4174    1.7576   -5.6739 H         1 <0>         0.0758
     32 H11         1.1885    1.8040   -4.8920 H         1 <0>         0.0811
     33 H12         0.5946    1.1539   -7.6469 H         1 <0>         0.0921
     34 H13         2.1892    1.0943   -6.8357 H         1 <0>         0.0876
     35 H14         3.0622   -1.2342   -6.9167 H         1 <0>         0.3848
     36 H15        -0.7735   -2.8675   -1.9348 H         1 <0>         0.0677
     37 H16         0.2484   -3.9715   -2.8863 H         1 <0>         0.0814
     38 H17         0.9991   -2.7197   -1.8676 H         1 <0>         0.0724
@<TRIPOS>BOND
     1    1    2 1
     2    1   24 1
     3    1   25 1
     4    1   26 1
     5    2    7 ar
     6    2    3 ar
     7    3    4 ar
     8    3   11 1
     9    4    5 ar
    10    4   27 1
    11    5    6 ar
    12    5   28 1
    13    6    7 ar
    14    6    9 1
    15    7    8 1
    16    9   10 3
    17   11   12 2
    18   12   17 1
    19   12   13 1
    20   13   14 1
    21   13   23 1
    22   14   15 1
    23   14   29 1
    24   14   30 1
    25   15   16 1
    26   15   20 1
    27   15   17 1
    28   17   18 1
    29   18   19 1
    30   18   31 1
    31   18   32 1
    32   19   20 1
    33   19   33 1
    34   19   34 1
    35   20   21 1
    36   20   22 1
    37   22   35 1
    38   23   36 1
    39   23   37 1
    40   23   38 1
@<TRIPOS>MOLECULE
CHEMBL519169__1
   39    41     0     0     0
SMALL
USER_CHARGES

@<TRIPOS>ATOM
      1 C1          1.0063    1.5402   -0.2218 C.3       1 <0>        -0.1318
      2 C2          0.1033    2.1341   -1.2720 C.ar      1 <0>        -0.0890
      3 C3         -0.3445    1.3480   -2.3285 C.ar      1 <0>         0.1736
      4 C4         -1.1783    1.8918   -3.3006 C.ar      1 <0>        -0.1612
      5 C5         -1.5641    3.2109   -3.2204 C.ar      1 <0>        -0.0292
      6 C6         -1.1173    4.0051   -2.1604 C.ar      1 <0>        -0.0053
      7 C7         -0.2826    3.4540   -1.1816 C.ar      1 <0>         0.0296
      8 Cl1         0.2711    4.4332    0.1407 Cl        1 <0>        -0.0135
      9 C8         -1.5165    5.3776   -2.0737 C.1       1 <0>         0.2291
     10 N1         -1.8332    6.4664   -2.0049 N.1       1 <0>        -0.3631
     11 N2          0.0437    0.0113   -2.4139 N.pl3     1 <0>        -0.6363
     12 C9         -0.0858   -0.6685   -3.6043 C.cat     1 <0>         0.7438
     13 N3         -0.1986   -1.9583   -3.6738 N.pl3     1 <0>        -0.5349
     14 C10        -0.3926   -2.3718   -5.0738 C.3       1 <0>         0.0781
     15 C11        -0.5663   -1.0444   -5.8204 C.3       1 <0>         0.0774
     16 H1         -1.5922   -0.8783   -6.1490 H         1 <0>         0.1469
     17 N4         -0.1131   -0.0471   -4.8157 N.pl3     1 <0>        -0.5979
     18 C12         0.1953    1.1588   -5.5983 C.3       1 <0>         0.1408
     19 C13         0.6422    0.6686   -6.9935 C.3       1 <0>        -0.1704
     20 C14         0.4570   -0.8830   -6.9619 C.3       1 <0>         0.0979
     21 H2          0.0507   -1.2520   -7.9036 H         1 <0>         0.1057
     22 O1          1.6837   -1.5435   -6.6442 O.3       1 <0>        -0.5606
     23 C15        -0.1414   -2.8699   -2.5283 C.3       1 <0>         0.0700
     24 H3          0.4016    1.1190    0.5813 H         1 <0>         0.0927
     25 H4          1.6154    0.7544   -0.6685 H         1 <0>         0.0707
     26 H5          1.6550    2.3178    0.1815 H         1 <0>         0.0949
     27 H6         -1.5232    1.2781   -4.1197 H         1 <0>         0.1501
     28 H7         -2.2111    3.6318   -3.9758 H         1 <0>         0.1585
     29 H8          0.4836   -2.9064   -5.4408 H         1 <0>         0.1347
     30 H9         -1.2872   -2.9868   -5.1717 H         1 <0>         0.1267
     31 H10        -0.6930    1.7841   -5.6881 H         1 <0>         0.1068
     32 H11         1.0008    1.7181   -5.1223 H         1 <0>         0.1000
     33 H12         0.0108    1.1034   -7.7683 H         1 <0>         0.1094
     34 H13         1.6876    0.9233   -7.1679 H         1 <0>         0.1022
     35 H14         2.3594   -1.4703   -7.3320 H         1 <0>         0.4019
     36 H15        -0.1034   -2.2915   -1.6052 H         1 <0>         0.0939
     37 H16        -1.0283   -3.5036   -2.5237 H         1 <0>         0.1097
     38 H17         0.7499   -3.4928   -2.6038 H         1 <0>         0.1071
     39 H18         0.4050   -0.4395   -1.6347 H         1 <0>         0.4412
@<TRIPOS>BOND
     1    1    2 1
     2    1   24 1
     3    1   25 1
     4    1   26 1
     5    2    7 ar
     6    2    3 ar
     7    3    4 ar
     8    3   11 1
     9    4    5 ar
    10    4   27 1
    11    5    6 ar
    12    5   28 1
    13    6    7 ar
    14    6    9 1
    15    7    8 1
    16    9   10 3
    17   11   12 1
    18   11   39 1
    19   12   17 1
    20   12   13 2
    21   13   14 1
    22   13   23 1
    23   14   15 1
    24   14   29 1
    25   14   30 1
    26   15   16 1
    27   15   20 1
    28   15   17 1
    29   17   18 1
    30   18   19 1
    31   18   31 1
    32   18   32 1
    33   19   20 1
    34   19   33 1
    35   19   34 1
    36   20   21 1
    37   20   22 1
    38   22   35 1
    39   23   36 1
    40   23   37 1
    41   23   38 1
@<TRIPOS>MOLECULE
CHEMBL501627
   33    34     0     0     0
SMALL
USER_CHARGES

@<TRIPOS>ATOM
      1 C1         -0.0167    1.3792    0.0096 C.ar      1 <0>        -0.0630
      2 C2          1.1668    2.0884    0.0021 C.ar      1 <0>        -0.0734
      3 C3          2.3851    1.4068   -0.0131 C.ar      1 <0>         0.0220
      4 C4          2.3967    0.0103   -0.0207 C.ar      1 <0>        -0.1437
      5 C5          1.2061   -0.6860   -0.0130 C.ar      1 <0>        -0.0696
      6 C6          0.0021   -0.0041    0.0020 C.ar      1 <0>        -0.0527
      7 C7         -1.2947   -0.7718    0.0102 C.3       1 <0>        -0.0446
      8 C8         -2.1128   -0.4043   -1.2293 C.3       1 <0>        -0.1095
      9 C9         -3.4293   -1.1837   -1.2210 C.3       1 <0>        -0.1204
     10 C10        -4.2237   -0.8296    0.0378 C.3       1 <0>        -0.1173
     11 C11        -3.4056   -1.1972    1.2773 C.3       1 <0>        -0.1528
     12 C12        -2.0890   -0.4177    1.2690 C.3       1 <0>         0.1139
     13 O1         -2.3654    0.9843    1.2792 O.3       1 <0>        -0.5612
     14 C13         3.7069   -0.7340   -0.0376 C.3       1 <0>         0.5042
     15 F1          3.4608   -2.1112   -0.0425 F         1 <0>        -0.1712
     16 F2          4.4268   -0.3849   -1.1853 F         1 <0>        -0.1718
     17 F3          4.4494   -0.3971    1.0992 F         1 <0>        -0.1720
     18 C14         3.6173    2.1363   -0.0214 C.1       1 <0>         0.2308
     19 N1          4.5948    2.7150   -0.0280 N.1       1 <0>        -0.3789
     20 H1         -0.9598    1.9051    0.0260 H         1 <0>         0.1607
     21 H2          1.1507    3.1682    0.0077 H         1 <0>         0.1457
     22 H3          1.2136   -1.7660   -0.0189 H         1 <0>         0.1480
     23 H4         -1.0838   -1.8412    0.0025 H         1 <0>         0.0962
     24 H5         -2.3236    0.6651   -1.2216 H         1 <0>         0.0770
     25 H6         -1.5469   -0.6566   -2.1261 H         1 <0>         0.0656
     26 H7         -4.0122   -0.9219   -2.1041 H         1 <0>         0.0661
     27 H8         -3.2185   -2.2531   -1.2288 H         1 <0>         0.0618
     28 H9         -4.4345    0.2398    0.0455 H         1 <0>         0.0700
     29 H10        -5.1616   -1.3849    0.0437 H         1 <0>         0.0611
     30 H11        -3.9715   -0.9449    2.1741 H         1 <0>         0.0678
     31 H12        -3.1948   -2.2665    1.2696 H         1 <0>         0.0727
     32 H13        -1.5062   -0.6795    2.1521 H         1 <0>         0.0588
     33 H14        -2.8676    1.2806    2.0506 H         1 <0>         0.3795
@<TRIPOS>BOND
     1    1    6 ar
     2    1    2 ar
     3    1   20 1
     4    2    3 ar
     5    2   21 1
     6    3    4 ar
     7    3   18 1
     8    4    5 ar
     9    4   14 1
    10    5    6 ar
    11    5   22 1
    12    6    7 1
    13    7   12 1
    14    7    8 1
    15    7   23 1
    16    8    9 1
    17    8   24 1
    18    8   25 1
    19    9   10 1
    20    9   26 1
    21    9   27 1
    22   10   11 1
    23   10   28 1
    24   10   29 1
    25   11   12 1
    26   11   30 1
    27   11   31 1
    28   12   13 1
    29   12   32 1
    30   13   33 1
    31   14   15 1
    32   14   16 1
    33   14   17 1
    34   18   19 3
@<TRIPOS>MOLECULE
CHEMBL501627__1
   33    34     0     0     0
SMALL
USER_CHARGES

@<TRIPOS>ATOM
      1 C1         -0.0167    1.3792    0.0096 C.ar      1 <0>        -0.0858
      2 C2          1.1668    2.0884    0.0021 C.ar      1 <0>        -0.0656
      3 C3          2.3851    1.4068   -0.0131 C.ar      1 <0>         0.0194
      4 C4          2.3967    0.0103   -0.0207 C.ar      1 <0>        -0.1371
      5 C5          1.2061   -0.6860   -0.0130 C.ar      1 <0>        -0.0606
      6 C6          0.0021   -0.0041    0.0020 C.ar      1 <0>        -0.0359
      7 C7         -1.2947   -0.7718    0.0102 C.3       1 <0>        -0.0468
      8 C8         -2.1128   -0.4043   -1.2293 C.3       1 <0>        -0.1117
      9 C9         -3.4293   -1.1837   -1.2210 C.3       1 <0>        -0.1234
     10 C10        -4.2237   -0.8296    0.0378 C.3       1 <0>        -0.1203
     11 C11        -3.4056   -1.1972    1.2773 C.3       1 <0>        -0.1534
     12 C12        -2.0890   -0.4177    1.2690 C.3       1 <0>         0.1128
     13 O1         -1.3249   -0.7610    2.4267 O.3       1 <0>        -0.5634
     14 C13         3.7069   -0.7340   -0.0376 C.3       1 <0>         0.5040
     15 F1          3.4608   -2.1112   -0.0425 F         1 <0>        -0.1702
     16 F2          4.4268   -0.3849   -1.1853 F         1 <0>        -0.1718
     17 F3          4.4494   -0.3971    1.0992 F         1 <0>        -0.1711
     18 C14         3.6173    2.1363   -0.0214 C.1       1 <0>         0.2311
     19 N1          4.5948    2.7150   -0.0280 N.1       1 <0>        -0.3782
     20 H1         -0.9598    1.9051    0.0260 H         1 <0>         0.1421
     21 H2          1.1507    3.1682    0.0077 H         1 <0>         0.1467
     22 H3          1.2136   -1.7660   -0.0189 H         1 <0>         0.1489
     23 H4         -1.0838   -1.8412    0.0025 H         1 <0>         0.0939
     24 H5         -2.3236    0.6651   -1.2216 H         1 <0>         0.0703
     25 H6         -1.5469   -0.6566   -2.1261 H         1 <0>         0.0756
     26 H7         -4.0122   -0.9219   -2.1041 H         1 <0>         0.0698
     27 H8         -3.2185   -2.2531   -1.2288 H         1 <0>         0.0668
     28 H9         -4.4345    0.2398    0.0455 H         1 <0>         0.0647
     29 H10        -5.1616   -1.3849    0.0437 H         1 <0>         0.0678
     30 H11        -3.9715   -0.9449    2.1741 H         1 <0>         0.0682
     31 H12        -3.1948   -2.2665    1.2696 H         1 <0>         0.0734
     32 H13        -2.2999    0.6517    1.2767 H         1 <0>         0.0588
     33 H14        -1.7681   -0.5636    3.2632 H         1 <0>         0.3808
@<TRIPOS>BOND
     1    1    6 ar
     2    1    2 ar
     3    1   20 1
     4    2    3 ar
     5    2   21 1
     6    3    4 ar
     7    3   18 1
     8    4    5 ar
     9    4   14 1
    10    5    6 ar
    11    5   22 1
    12    6    7 1
    13    7   12 1
    14    7    8 1
    15    7   23 1
    16    8    9 1
    17    8   24 1
    18    8   25 1
    19    9   10 1
    20    9   26 1
    21    9   27 1
    22   10   11 1
    23   10   28 1
    24   10   29 1
    25   11   12 1
    26   11   30 1
    27   11   31 1
    28   12   13 1
    29   12   32 1
    30   13   33 1
    31   14   15 1
    32   14   16 1
    33   14   17 1
    34   18   19 3
@<TRIPOS>MOLECULE
CHEMBL501627__2
   33    34     0     0     0
SMALL
USER_CHARGES

@<TRIPOS>ATOM
      1 C1         -0.0167    1.3792    0.0096 C.ar      1 <0>        -0.0858
      2 C2          1.1668    2.0884    0.0021 C.ar      1 <0>        -0.0656
      3 C3          2.3851    1.4068   -0.0131 C.ar      1 <0>         0.0194
      4 C4          2.3967    0.0103   -0.0207 C.ar      1 <0>        -0.1371
      5 C5          1.2061   -0.6860   -0.0130 C.ar      1 <0>        -0.0606
      6 C6          0.0021   -0.0041    0.0020 C.ar      1 <0>        -0.0360
      7 C7         -1.2947   -0.7718    0.0102 C.3       1 <0>        -0.0468
      8 C8         -2.0890   -0.4177    1.2690 C.3       1 <0>        -0.1117
      9 C9         -3.4056   -1.1972    1.2773 C.3       1 <0>        -0.1234
     10 C10        -4.2237   -0.8296    0.0378 C.3       1 <0>        -0.1203
     11 C11        -3.4293   -1.1837   -1.2210 C.3       1 <0>        -0.1535
     12 C12        -2.1128   -0.4043   -1.2293 C.3       1 <0>         0.1129
     13 O1         -1.3709   -0.7350   -2.4050 O.3       1 <0>        -0.5634
     14 C13         3.7069   -0.7340   -0.0376 C.3       1 <0>         0.5040
     15 F1          3.4608   -2.1112   -0.0425 F         1 <0>        -0.1702
     16 F2          4.4268   -0.3849   -1.1853 F         1 <0>        -0.1712
     17 F3          4.4494   -0.3971    1.0992 F         1 <0>        -0.1718
     18 C14         3.6173    2.1363   -0.0214 C.1       1 <0>         0.2311
     19 N1          4.5948    2.7150   -0.0280 N.1       1 <0>        -0.3782
     20 H1         -0.9598    1.9051    0.0260 H         1 <0>         0.1421
     21 H2          1.1507    3.1682    0.0077 H         1 <0>         0.1467
     22 H3          1.2136   -1.7660   -0.0189 H         1 <0>         0.1489
     23 H4         -1.0838   -1.8412    0.0025 H         1 <0>         0.0939
     24 H5         -1.5062   -0.6795    2.1521 H         1 <0>         0.0757
     25 H6         -2.2999    0.6517    1.2767 H         1 <0>         0.0703
     26 H7         -3.1948   -2.2665    1.2696 H         1 <0>         0.0668
     27 H8         -3.9715   -0.9449    2.1741 H         1 <0>         0.0698
     28 H9         -5.1616   -1.3849    0.0437 H         1 <0>         0.0678
     29 H10        -4.4345    0.2398    0.0455 H         1 <0>         0.0647
     30 H11        -3.2185   -2.2531   -1.2288 H         1 <0>         0.0734
     31 H12        -4.0122   -0.9219   -2.1041 H         1 <0>         0.0682
     32 H13        -2.3236    0.6651   -1.2216 H         1 <0>         0.0589
     33 H14        -1.8298   -0.5287   -3.2308 H         1 <0>         0.3808
@<TRIPOS>BOND
     1    1    6 ar
     2    1    2 ar
     3    1   20 1
     4    2    3 ar
     5    2   21 1
     6    3    4 ar
     7    3   18 1
     8    4    5 ar
     9    4   14 1
    10    5    6 ar
    11    5   22 1
    12    6    7 1
    13    7   12 1
    14    7    8 1
    15    7   23 1
    16    8    9 1
    17    8   24 1
    18    8   25 1
    19    9   10 1
    20    9   26 1
    21    9   27 1
    22   10   11 1
    23   10   28 1
    24   10   29 1
    25   11   12 1
    26   11   30 1
    27   11   31 1
    28   12   13 1
    29   12   32 1
    30   13   33 1
    31   14   15 1
    32   14   16 1
    33   14   17 1
    34   18   19 3
@<TRIPOS>MOLECULE
CHEMBL501627__3
   33    34     0     0     0
SMALL
USER_CHARGES

@<TRIPOS>ATOM
      1 C1         -0.0167    1.3792    0.0096 C.ar      1 <0>        -0.0627
      2 C2          1.1668    2.0884    0.0021 C.ar      1 <0>        -0.0734
      3 C3          2.3851    1.4068   -0.0131 C.ar      1 <0>         0.0220
      4 C4          2.3967    0.0103   -0.0207 C.ar      1 <0>        -0.1437
      5 C5          1.2061   -0.6860   -0.0130 C.ar      1 <0>        -0.0696
      6 C6          0.0021   -0.0041    0.0020 C.ar      1 <0>        -0.0527
      7 C7         -1.2947   -0.7718    0.0102 C.3       1 <0>        -0.0446
      8 C8         -2.0890   -0.4177    1.2690 C.3       1 <0>        -0.1095
      9 C9         -3.4056   -1.1972    1.2773 C.3       1 <0>        -0.1204
     10 C10        -4.2237   -0.8296    0.0378 C.3       1 <0>        -0.1173
     11 C11        -3.4293   -1.1837   -1.2210 C.3       1 <0>        -0.1528
     12 C12        -2.1128   -0.4043   -1.2293 C.3       1 <0>         0.1139
     13 O1         -2.3892    0.9977   -1.2192 O.3       1 <0>        -0.5611
     14 C13         3.7069   -0.7340   -0.0376 C.3       1 <0>         0.5042
     15 F1          3.4608   -2.1112   -0.0425 F         1 <0>        -0.1712
     16 F2          4.4268   -0.3849   -1.1853 F         1 <0>        -0.1720
     17 F3          4.4494   -0.3971    1.0992 F         1 <0>        -0.1717
     18 C14         3.6173    2.1363   -0.0214 C.1       1 <0>         0.2308
     19 N1          4.5948    2.7150   -0.0280 N.1       1 <0>        -0.3789
     20 H1         -0.9598    1.9051    0.0260 H         1 <0>         0.1604
     21 H2          1.1507    3.1682    0.0077 H         1 <0>         0.1457
     22 H3          1.2136   -1.7660   -0.0189 H         1 <0>         0.1480
     23 H4         -1.0838   -1.8412    0.0025 H         1 <0>         0.0962
     24 H5         -1.5062   -0.6795    2.1521 H         1 <0>         0.0656
     25 H6         -2.2999    0.6517    1.2767 H         1 <0>         0.0770
     26 H7         -3.1948   -2.2665    1.2696 H         1 <0>         0.0618
     27 H8         -3.9715   -0.9449    2.1741 H         1 <0>         0.0661
     28 H9         -5.1616   -1.3849    0.0437 H         1 <0>         0.0611
     29 H10        -4.4345    0.2398    0.0455 H         1 <0>         0.0700
     30 H11        -3.2185   -2.2531   -1.2288 H         1 <0>         0.0727
     31 H12        -4.0122   -0.9219   -2.1041 H         1 <0>         0.0678
     32 H13        -1.5469   -0.6566   -2.1261 H         1 <0>         0.0588
     33 H14        -2.9059    1.3022   -1.9777 H         1 <0>         0.3795
@<TRIPOS>BOND
     1    1    6 ar
     2    1    2 ar
     3    1   20 1
     4    2    3 ar
     5    2   21 1
     6    3    4 ar
     7    3   18 1
     8    4    5 ar
     9    4   14 1
    10    5    6 ar
    11    5   22 1
    12    6    7 1
    13    7   12 1
    14    7    8 1
    15    7   23 1
    16    8    9 1
    17    8   24 1
    18    8   25 1
    19    9   10 1
    20    9   26 1
    21    9   27 1
    22   10   11 1
    23   10   28 1
    24   10   29 1
    25   11   12 1
    26   11   30 1
    27   11   31 1
    28   12   13 1
    29   12   32 1
    30   13   33 1
    31   14   15 1
    32   14   16 1
    33   14   17 1
    34   18   19 3
@<TRIPOS>MOLECULE
CHEMBL249903
   55    58     0     0     0
SMALL
USER_CHARGES

@<TRIPOS>ATOM
      1 C1         -0.0187    1.5258    0.0104 C.3       1 <0>        -0.1451
      2 C2          0.0021   -0.0041    0.0020 C.3       1 <0>        -0.0847
      3 C3         -1.4117   -0.5257    0.0127 C.2       1 <0>        -0.1109
      4 C4         -2.0420   -0.8605   -1.1237 C.2       1 <0>        -0.1359
      5 C5         -3.4374   -1.3389   -0.9465 C.2       1 <0>        -0.0730
      6 C6         -3.8412   -2.4105   -1.5938 C.2       1 <0>        -0.1474
      7 C7         -5.2175   -2.9901   -1.4779 C.3       1 <0>        -0.0833
      8 C8         -6.1861   -1.9713   -0.8676 C.3       1 <0>        -0.0710
      9 H1         -6.4071   -1.1792   -1.5830 H         1 <0>         0.0880
     10 C9         -7.4608   -2.6867   -0.4561 C.3       1 <0>        -0.0839
     11 H2         -7.2401   -3.4535    0.2865 H         1 <0>         0.0744
     12 C10        -8.2899   -3.2790   -1.6011 C.3       1 <0>        -0.1131
     13 C11        -9.7087   -3.3930   -0.9799 C.3       1 <0>        -0.1565
     14 C12        -9.7680   -2.3544    0.1677 C.3       1 <0>         0.1098
     15 H3         -9.8874   -2.8581    1.1269 H         1 <0>         0.0549
     16 C13        -8.4238   -1.6239    0.1355 C.3       1 <0>        -0.0558
     17 C14        -7.8408   -1.1994    1.4711 C.3       1 <0>        -0.1012
     18 C15        -6.5074   -0.4981    1.1758 C.3       1 <0>        -0.1218
     19 C16        -5.5358   -1.3868    0.4003 C.3       1 <0>        -0.0621
     20 H4         -5.2046   -2.1998    1.0464 H         1 <0>         0.0704
     21 C17        -4.3255   -0.5501   -0.0281 C.3       1 <0>         0.0192
     22 C18        -3.5640   -0.0751    1.2015 C.3       1 <0>        -0.1043
     23 C19        -2.1756   -0.6993    1.3017 C.3       1 <0>        -0.0810
     24 C20        -4.8189    0.6687   -0.7643 C.2       1 <0>        -0.1425
     25 C21        -4.4506    0.8791   -2.0038 C.2       1 <0>        -0.1895
     26 C22        -8.5188   -0.4234   -0.8082 C.3       1 <0>        -0.1329
     27 O1        -10.8445   -1.4397   -0.0476 O.3       1 <0>        -0.5599
     28 H5          1.0039    1.9031    0.0027 H         1 <0>         0.0562
     29 H6         -0.5459    1.8868   -0.8726 H         1 <0>         0.0551
     30 H7         -0.5289    1.8773    0.9072 H         1 <0>         0.0547
     31 H8          0.5123   -0.3556   -0.8948 H         1 <0>         0.0678
     32 H9          0.5293   -0.3651    0.8851 H         1 <0>         0.0688
     33 H10        -1.5711   -0.7875   -2.0928 H         1 <0>         0.1218
     34 H11        -3.1376   -2.9022   -2.2492 H         1 <0>         0.1040
     35 H12        -5.5722   -3.2735   -2.4689 H         1 <0>         0.0713
     36 H13        -5.1816   -3.8757   -0.8435 H         1 <0>         0.0719
     37 H14        -8.2975   -2.6071   -2.4594 H         1 <0>         0.0698
     38 H15        -7.9120   -4.2618   -1.8826 H         1 <0>         0.0662
     39 H16       -10.4653   -3.1646   -1.7306 H         1 <0>         0.0720
     40 H17        -9.8645   -4.3967   -0.5845 H         1 <0>         0.0667
     41 H18        -8.5209   -0.5100    1.9715 H         1 <0>         0.0661
     42 H19        -7.6698   -2.0750    2.0974 H         1 <0>         0.0622
     43 H20        -6.7018    0.3978    0.5860 H         1 <0>         0.0728
     44 H21        -6.0450   -0.2057    2.1185 H         1 <0>         0.0625
     45 H22        -3.4639    1.0094    1.1574 H         1 <0>         0.0658
     46 H23        -4.1331   -0.3391    2.0928 H         1 <0>         0.0712
     47 H24        -2.2735   -1.7630    1.5186 H         1 <0>         0.0712
     48 H25        -1.6248   -0.2199    2.1109 H         1 <0>         0.0672
     49 H26        -5.4763    1.3688   -0.2701 H         1 <0>         0.1108
     50 H27        -3.7933    0.1790   -2.4980 H         1 <0>         0.1031
     51 H28        -4.8042    1.7525   -2.5314 H         1 <0>         0.0925
     52 H29        -8.8970   -0.7514   -1.7764 H         1 <0>         0.0529
     53 H30        -9.1968    0.3182   -0.3856 H         1 <0>         0.0577
     54 H31        -7.5304    0.0183   -0.9348 H         1 <0>         0.0618
     55 H32       -11.7170   -1.8564   -0.0662 H         1 <0>         0.3749
@<TRIPOS>BOND
     1    1    2 1
     2    1   28 1
     3    1   29 1
     4    1   30 1
     5    2    3 1
     6    2   31 1
     7    2   32 1
     8    3   23 1
     9    3    4 2
    10    4    5 1
    11    4   33 1
    12    5   21 1
    13    5    6 2
    14    6    7 1
    15    6   34 1
    16    7    8 1
    17    7   35 1
    18    7   36 1
    19    8    9 1
    20    8   19 1
    21    8   10 1
    22   10   11 1
    23   10   16 1
    24   10   12 1
    25   12   13 1
    26   12   37 1
    27   12   38 1
    28   13   14 1
    29   13   39 1
    30   13   40 1
    31   14   15 1
    32   14   16 1
    33   14   27 1
    34   16   17 1
    35   16   26 1
    36   17   18 1
    37   17   41 1
    38   17   42 1
    39   18   19 1
    40   18   43 1
    41   18   44 1
    42   19   20 1
    43   19   21 1
    44   21   22 1
    45   21   24 1
    46   22   23 1
    47   22   45 1
    48   22   46 1
    49   23   47 1
    50   23   48 1
    51   24   25 2
    52   24   49 1
    53   25   50 1
    54   25   51 1
    55   26   52 1
    56   26   53 1
    57   26   54 1
    58   27   55 1
@<TRIPOS>MOLECULE
CHEMBL183173
   43    47     0     0     0
SMALL
USER_CHARGES

@<TRIPOS>ATOM
      1 C1          0.2453    1.2946    0.3216 C.3       1 <0>         0.0907
      2 N1          0.2389   -0.1580    0.1312 N.am      1 <0>        -0.6221
      3 C2         -0.9840   -0.9881    0.2581 C.3       1 <0>         0.1864
      4 C3         -0.6630   -2.0788    1.2741 C.2       1 <0>        -0.1808
      5 C4          0.4143   -2.8020    0.9737 C.2       1 <0>        -0.1470
      6 C5          1.0969   -2.3767   -0.3240 C.3       1 <0>        -0.0702
      7 C6          1.3615   -0.8780   -0.1869 C.2       1 <0>         0.5291
      8 O1          2.4549   -0.3763   -0.3410 O.2       1 <0>        -0.5015
      9 C7          0.0511   -2.5275   -1.4427 C.3       1 <0>        -0.1086
     10 H1          0.4688   -2.2559   -2.4122 H         1 <0>         0.1499
     11 C8         -1.1950   -1.6878   -1.0950 C.3       1 <0>        -0.1326
     12 H2         -1.4185   -0.9666   -1.8811 H         1 <0>         0.1511
     13 C9         -2.2891   -2.7230   -0.9475 C.2       1 <0>         0.5405
     14 O2         -3.4474   -2.4870   -0.6788 O.2       1 <0>        -0.4472
     15 N2         -1.7754   -3.9407   -1.1611 N.am      1 <0>        -0.5334
     16 C10        -0.4673   -3.9487   -1.4457 C.2       1 <0>         0.5379
     17 O3          0.1966   -4.9379   -1.6703 O.2       1 <0>        -0.4446
     18 C11        -2.5425   -5.1089   -1.0920 C.ar      1 <0>         0.1731
     19 C12        -3.1706   -5.5952   -2.2175 C.ar      1 <0>        -0.0983
     20 C13        -3.9360   -6.7563   -2.1600 C.ar      1 <0>        -0.0288
     21 C14        -4.0849   -7.4428   -0.9936 C.ar      1 <0>        -0.0190
     22 C15        -3.4601   -6.9803    0.1769 C.ar      1 <0>        -0.0085
     23 C16        -2.6746   -5.8022    0.1293 C.ar      1 <0>        -0.0352
     24 C17        -2.0470   -5.3442    1.2986 C.ar      1 <0>        -0.1062
     25 C18        -2.1964   -6.0388    2.4599 C.ar      1 <0>        -0.0947
     26 C19        -2.9645   -7.2006    2.5067 C.ar      1 <0>        -0.0854
     27 C20        -3.5959   -7.6682    1.3954 C.ar      1 <0>        -0.1132
     28 N3         -4.9046   -8.6749   -0.9586 N.pl3     1 <0>         0.0293
     29 O4         -4.8801   -9.4440   -1.8911 O.2       1 <0>        -0.1405
     30 O5         -5.5986   -8.9122    0.0025 O.3       1 <0>        -0.1442
     31 H3          1.2552    1.6763    0.1713 H         1 <0>         0.0877
     32 H4         -0.4292    1.7583   -0.3981 H         1 <0>         0.0667
     33 H5         -0.0852    1.5299    1.3333 H         1 <0>         0.0661
     34 H6         -1.8506   -0.3935    0.5473 H         1 <0>         0.1353
     35 H7         -1.2571   -2.2500    2.1596 H         1 <0>         0.1490
     36 H8          0.7719   -3.6131    1.5907 H         1 <0>         0.1486
     37 H9          2.0084   -2.9424   -0.5169 H         1 <0>         0.1421
     38 H10        -3.0684   -5.0692   -3.1552 H         1 <0>         0.1544
     39 H11        -4.4199   -7.1184   -3.0550 H         1 <0>         0.1613
     40 H12        -1.4484   -4.4455    1.2769 H         1 <0>         0.1322
     41 H13        -1.7122   -5.6845    3.3579 H         1 <0>         0.1375
     42 H14        -3.0672   -7.7332    3.4406 H         1 <0>         0.1407
     43 H15        -4.1887   -8.5695    1.4467 H         1 <0>         0.1524
@<TRIPOS>BOND
     1    1    2 1
     2    1   31 1
     3    1   32 1
     4    1   33 1
     5    2    7 am
     6    2    3 1
     7    3   11 1
     8    3    4 1
     9    3   34 1
    10    4    5 2
    11    4   35 1
    12    5    6 1
    13    5   36 1
    14    6    7 1
    15    6    9 1
    16    6   37 1
    17    7    8 2
    18    9   10 1
    19    9   16 1
    20    9   11 1
    21   11   12 1
    22   11   13 1
    23   13   14 2
    24   13   15 am
    25   15   16 am
    26   15   18 1
    27   16   17 2
    28   18   23 ar
    29   18   19 ar
    30   19   20 ar
    31   19   38 1
    32   20   21 ar
    33   20   39 1
    34   21   22 ar
    35   21   28 1
    36   22   27 ar
    37   22   23 ar
    38   23   24 ar
    39   24   25 ar
    40   24   40 1
    41   25   26 ar
    42   25   41 1
    43   26   27 ar
    44   26   42 1
    45   27   43 1
    46   28   29 2
    47   28   30 1
@<TRIPOS>MOLECULE
CHEMBL183173__1
   43    47     0     0     0
SMALL
USER_CHARGES

@<TRIPOS>ATOM
      1 C1          0.7450    1.2160   -0.1414 C.3       1 <0>         0.0842
      2 N1          0.4883   -0.2241   -0.0603 N.am      1 <0>        -0.6330
      3 C2         -0.8713   -0.8126   -0.1404 C.3       1 <0>         0.1817
      4 C3         -0.8298   -1.8454   -1.2614 C.2       1 <0>        -0.1623
      5 C4          0.1174   -2.7701   -1.1144 C.2       1 <0>        -0.1303
      6 C5          0.9598   -2.5910    0.1462 C.3       1 <0>        -0.0736
      7 C6          1.4823   -1.1563    0.0911 C.2       1 <0>         0.5081
      8 O1          2.6580   -0.8706    0.1751 O.2       1 <0>        -0.4963
      9 C7         -0.0113   -2.6591    1.3387 C.3       1 <0>        -0.1059
     10 H1         -0.4324   -3.6583    1.4495 H         1 <0>         0.1568
     11 C8         -1.1043   -1.5842    1.1686 C.3       1 <0>        -0.1327
     12 H2         -2.1002   -2.0269    1.1919 H         1 <0>         0.1582
     13 C9         -0.8732   -0.6540    2.3392 C.2       1 <0>         0.5380
     14 O2         -1.5211    0.3408    2.5843 O.2       1 <0>        -0.4500
     15 N2          0.1601   -1.1041    3.0618 N.am      1 <0>        -0.5351
     16 C10         0.7194   -2.2257    2.5911 C.2       1 <0>         0.5243
     17 O3          1.6615   -2.8032    3.0895 O.2       1 <0>        -0.4407
     18 C11         0.6181   -0.4555    4.2138 C.ar      1 <0>         0.1721
     19 C12         0.1042   -0.7863    5.4484 C.ar      1 <0>        -0.0994
     20 C13         0.5527   -0.1474    6.6007 C.ar      1 <0>        -0.0298
     21 C14         1.5095    0.8195    6.5410 C.ar      1 <0>        -0.0189
     22 C15         2.0597    1.1860    5.3011 C.ar      1 <0>        -0.0084
     23 C16         1.6144    0.5389    4.1220 C.ar      1 <0>        -0.0380
     24 C17         2.1687    0.9027    2.8846 C.ar      1 <0>        -0.1024
     25 C18         3.1286    1.8669    2.8335 C.ar      1 <0>        -0.0927
     26 C19         3.5711    2.5002    3.9932 C.ar      1 <0>        -0.0828
     27 C20         3.0488    2.1807    5.2088 C.ar      1 <0>        -0.1162
     28 N3          1.9692    1.4844    7.7812 N.pl3     1 <0>         0.0300
     29 O4          2.0894    0.8457    8.8006 O.2       1 <0>        -0.1410
     30 O5          2.2245    2.6662    7.7745 O.3       1 <0>        -0.1444
     31 H3          1.8166    1.3990   -0.0632 H         1 <0>         0.0858
     32 H4          0.3799    1.5969   -1.0953 H         1 <0>         0.0722
     33 H5          0.2292    1.7235    0.6738 H         1 <0>         0.0651
     34 H6         -1.6343   -0.0518   -0.3048 H         1 <0>         0.1353
     35 H7         -1.5091   -1.8287   -2.1008 H         1 <0>         0.1512
     36 H8          0.2751   -3.5714   -1.8211 H         1 <0>         0.1509
     37 H9          1.7651   -3.3224    0.2133 H         1 <0>         0.1406
     38 H10        -0.6558   -1.5501    5.5230 H         1 <0>         0.1542
     39 H11         0.1348   -0.4228    7.5577 H         1 <0>         0.1613
     40 H12         1.8356    0.4200    1.9777 H         1 <0>         0.1339
     41 H13         3.5537    2.1446    1.8803 H         1 <0>         0.1366
     42 H14         4.3338    3.2619    3.9256 H         1 <0>         0.1410
     43 H15         3.4008    2.6804    6.0991 H         1 <0>         0.1526
@<TRIPOS>BOND
     1    1    2 1
     2    1   31 1
     3    1   32 1
     4    1   33 1
     5    2    7 am
     6    2    3 1
     7    3   11 1
     8    3    4 1
     9    3   34 1
    10    4    5 2
    11    4   35 1
    12    5    6 1
    13    5   36 1
    14    6    7 1
    15    6    9 1
    16    6   37 1
    17    7    8 2
    18    9   10 1
    19    9   16 1
    20    9   11 1
    21   11   12 1
    22   11   13 1
    23   13   14 2
    24   13   15 am
    25   15   16 am
    26   15   18 1
    27   16   17 2
    28   18   23 ar
    29   18   19 ar
    30   19   20 ar
    31   19   38 1
    32   20   21 ar
    33   20   39 1
    34   21   22 ar
    35   21   28 1
    36   22   27 ar
    37   22   23 ar
    38   23   24 ar
    39   24   25 ar
    40   24   40 1
    41   25   26 ar
    42   25   41 1
    43   26   27 ar
    44   26   42 1
    45   27   43 1
    46   28   29 2
    47   28   30 1
@<TRIPOS>MOLECULE
CHEMBL244600
   38    40     0     0     0
SMALL
USER_CHARGES

@<TRIPOS>ATOM
      1 C1         -0.0187    1.5258    0.0104 C.3       1 <0>        -0.1477
      2 C2          0.0021   -0.0041    0.0020 C.3       1 <0>        -0.1052
      3 C3         -1.4333   -0.5336    0.0129 C.3       1 <0>         0.0722
      4 C4         -1.4046   -2.0529    0.1770 C.3       1 <0>        -0.1446
      5 C5         -2.8393   -2.5910    0.0587 C.3       1 <0>        -0.0856
      6 C6         -3.3527   -2.1910   -1.3067 C.2       1 <0>        -0.1147
      7 C7         -4.1272   -3.0003   -2.0059 C.2       1 <0>        -0.1243
      8 C8         -4.6400   -2.6553   -3.3714 C.3       1 <0>        -0.0301
      9 C9         -3.7649   -1.6090   -4.0498 C.3       1 <0>         0.1555
     10 C10        -3.5995   -0.3990   -3.1209 C.3       1 <0>        -0.0911
     11 C11        -2.9595   -0.8739   -1.8365 C.2       1 <0>         0.2050
     12 N1         -2.0938   -0.1462   -1.2264 N.2       1 <0>        -0.4984
     13 N2         -4.3828   -1.1647   -5.3010 N.am      1 <0>        -0.7164
     14 C12        -5.7176   -1.0079   -5.3808 C.2       1 <0>         0.5527
     15 O1         -6.2167   -0.5303   -6.3817 O.2       1 <0>        -0.5125
     16 C13        -6.5708   -1.4164   -4.2538 C.2       1 <0>        -0.1081
     17 C14        -6.0661   -2.1850   -3.2930 C.2       1 <0>        -0.1479
     18 C15        -6.9262   -2.5862   -2.1224 C.3       1 <0>         0.5037
     19 F1         -8.2025   -2.0325   -2.2700 F         1 <0>        -0.1730
     20 F2         -7.0257   -3.9807   -2.0731 F         1 <0>        -0.1706
     21 F3         -6.3488   -2.1177   -0.9373 F         1 <0>        -0.1652
     22 H1          1.0039    1.9031    0.0027 H         1 <0>         0.0514
     23 H2         -0.5459    1.8868   -0.8726 H         1 <0>         0.0653
     24 H3         -0.5289    1.8773    0.9072 H         1 <0>         0.0496
     25 H4          0.5123   -0.3556   -0.8948 H         1 <0>         0.0633
     26 H5          0.5293   -0.3651    0.8851 H         1 <0>         0.0687
     27 H6         -1.9688   -0.0949    0.8548 H         1 <0>         0.0901
     28 H7         -0.7838   -2.4931   -0.6033 H         1 <0>         0.0712
     29 H8         -0.9988   -2.3070    1.1563 H         1 <0>         0.0804
     30 H9         -2.8376   -3.6770    0.1515 H         1 <0>         0.0840
     31 H10        -3.4661   -2.1517    0.8347 H         1 <0>         0.0830
     32 H11        -4.4026   -3.9518   -1.5755 H         1 <0>         0.1300
     33 H12        -4.6123   -3.5569   -3.9832 H         1 <0>         0.1189
     34 H13        -2.7861   -2.0384   -4.2637 H         1 <0>         0.1157
     35 H14        -2.9608    0.3453   -3.5966 H         1 <0>         0.1013
     36 H15        -3.8280   -0.9824   -6.0755 H         1 <0>         0.4157
     37 H16        -7.6007   -1.0943   -4.2073 H         1 <0>         0.1670
     38 H17        -4.5756    0.0363   -2.9066 H         1 <0>         0.0909
@<TRIPOS>BOND
     1    1    2 1
     2    1   22 1
     3    1   23 1
     4    1   24 1
     5    2    3 1
     6    2   25 1
     7    2   26 1
     8    3   12 1
     9    3    4 1
    10    3   27 1
    11    4    5 1
    12    4   28 1
    13    4   29 1
    14    5    6 1
    15    5   30 1
    16    5   31 1
    17    6   11 1
    18    6    7 2
    19    7    8 1
    20    7   32 1
    21    8   17 1
    22    8    9 1
    23    8   33 1
    24    9   10 1
    25    9   13 1
    26    9   34 1
    27   10   11 1
    28   10   35 1
    29   10   38 1
    30   11   12 2
    31   13   14 am
    32   13   36 1
    33   14   15 2
    34   14   16 1
    35   16   17 2
    36   16   37 1
    37   17   18 1
    38   18   19 1
    39   18   20 1
    40   18   21 1
@<TRIPOS>MOLECULE
CHEMBL244600__1
   38    40     0     0     0
SMALL
USER_CHARGES

@<TRIPOS>ATOM
      1 C1         -0.0187    1.5258    0.0104 C.3       1 <0>        -0.1485
      2 C2          0.0021   -0.0041    0.0020 C.3       1 <0>        -0.1189
      3 C3         -1.4333   -0.5336    0.0129 C.3       1 <0>         0.0724
      4 C4         -1.4058   -2.0543    0.1707 C.3       1 <0>        -0.1460
      5 C5         -0.7451   -2.6672   -1.0736 C.3       1 <0>        -0.0862
      6 C6         -1.5680   -2.2468   -2.2715 C.2       1 <0>        -0.1274
      7 C7         -1.7383   -3.0738   -3.2930 C.2       1 <0>        -0.1134
      8 C8         -2.5473   -2.6809   -4.4903 C.3       1 <0>        -0.0360
      9 C9         -3.6061   -1.6478   -4.1035 C.3       1 <0>         0.1512
     10 C10        -2.9024   -0.4283   -3.5026 C.3       1 <0>        -0.0771
     11 C11        -2.1711   -0.9029   -2.2626 C.2       1 <0>         0.2068
     12 N1         -2.0950   -0.1467   -1.2263 N.2       1 <0>        -0.4970
     13 N2         -4.3838   -1.2858   -5.2862 N.am      1 <0>        -0.7178
     14 C12        -4.6804   -2.2454   -6.1926 C.2       1 <0>         0.5527
     15 O1         -5.2927   -1.9630   -7.2047 O.2       1 <0>        -0.5102
     16 C13        -4.2561   -3.6359   -5.9455 C.2       1 <0>        -0.1011
     17 C14        -3.2215   -3.8635   -5.1293 C.2       1 <0>        -0.1572
     18 C15        -2.7441   -5.2668   -4.8575 C.3       1 <0>         0.5073
     19 F1         -3.5357   -6.1747   -5.5689 F         1 <0>        -0.1712
     20 F2         -1.4111   -5.3926   -5.2632 F         1 <0>        -0.1692
     21 F3         -2.8421   -5.5358   -3.4881 F         1 <0>        -0.1672
     22 H1          1.0039    1.9031    0.0027 H         1 <0>         0.0524
     23 H2         -0.5459    1.8868   -0.8726 H         1 <0>         0.0614
     24 H3         -0.5289    1.8773    0.9072 H         1 <0>         0.0551
     25 H4          0.5123   -0.3556   -0.8948 H         1 <0>         0.0625
     26 H5          0.5293   -0.3651    0.8851 H         1 <0>         0.0724
     27 H6         -1.9690   -0.0971    0.8558 H         1 <0>         0.0996
     28 H7         -0.8308   -2.3194    1.0580 H         1 <0>         0.0810
     29 H8         -2.4243   -2.4304    0.2666 H         1 <0>         0.0705
     30 H9          0.2741   -2.2941   -1.1743 H         1 <0>         0.0843
     31 H10        -0.7369   -3.7541   -0.9920 H         1 <0>         0.0826
     32 H11        -1.2833   -4.0527   -3.2613 H         1 <0>         0.1298
     33 H12        -1.8845   -2.2200   -5.2228 H         1 <0>         0.1214
     34 H13        -4.2764   -2.0797   -3.3603 H         1 <0>         0.0900
     35 H14        -2.1907   -0.0191   -4.2197 H         1 <0>         0.1017
     36 H15        -4.6828   -0.3726   -5.4192 H         1 <0>         0.4156
     37 H16        -4.7735   -4.4585   -6.4166 H         1 <0>         0.1687
     38 H17        -3.6377    0.3299   -3.2333 H         1 <0>         0.1054
@<TRIPOS>BOND
     1    1    2 1
     2    1   22 1
     3    1   23 1
     4    1   24 1
     5    2    3 1
     6    2   25 1
     7    2   26 1
     8    3   12 1
     9    3    4 1
    10    3   27 1
    11    4    5 1
    12    4   28 1
    13    4   29 1
    14    5    6 1
    15    5   30 1
    16    5   31 1
    17    6   11 1
    18    6    7 2
    19    7    8 1
    20    7   32 1
    21    8   17 1
    22    8    9 1
    23    8   33 1
    24    9   10 1
    25    9   13 1
    26    9   34 1
    27   10   11 1
    28   10   35 1
    29   10   38 1
    30   11   12 2
    31   13   14 am
    32   13   36 1
    33   14   15 2
    34   14   16 1
    35   16   17 2
    36   16   37 1
    37   17   18 1
    38   18   19 1
    39   18   20 1
    40   18   21 1
@<TRIPOS>MOLECULE
CHEMBL244600__2
   38    40     0     0     0
SMALL
USER_CHARGES

@<TRIPOS>ATOM
      1 C1         -0.0187    1.5258    0.0104 C.3       1 <0>        -0.1475
      2 C2          0.0021   -0.0041    0.0020 C.3       1 <0>        -0.1056
      3 C3         -1.4333   -0.5336    0.0129 C.3       1 <0>         0.0722
      4 C4         -1.4058   -2.0543    0.1706 C.3       1 <0>        -0.1449
      5 C5         -2.8439   -2.5863    0.0722 C.3       1 <0>        -0.0855
      6 C6         -3.3818   -2.1771   -1.2813 C.2       1 <0>        -0.1277
      7 C7         -4.1972   -2.9792   -1.9505 C.2       1 <0>        -0.1137
      8 C8         -4.7432   -2.5967   -3.2914 C.3       1 <0>        -0.0359
      9 C9         -3.7859   -1.6413   -4.0049 C.3       1 <0>         0.1513
     10 C10        -3.5891   -0.4021   -3.1278 C.3       1 <0>        -0.0766
     11 C11        -2.9695   -0.8723   -1.8267 C.2       1 <0>         0.2048
     12 N1         -2.0950   -0.1467   -1.2263 N.2       1 <0>        -0.4972
     13 N2         -4.3386   -1.2882   -5.3106 N.am      1 <0>        -0.7177
     14 C12        -4.9966   -2.2340   -6.0194 C.2       1 <0>         0.5527
     15 O1         -5.5000   -1.9561   -7.0911 O.2       1 <0>        -0.5103
     16 C13        -5.1000   -3.6040   -5.4840 C.2       1 <0>        -0.1012
     17 C14        -4.9859   -3.7962   -4.1654 C.2       1 <0>        -0.1573
     18 C15        -5.0980   -5.1767   -3.5717 C.3       1 <0>         0.5073
     19 F1         -5.3221   -6.1066   -4.5926 F         1 <0>        -0.1712
     20 F2         -3.9108   -5.4948   -2.9035 F         1 <0>        -0.1672
     21 F3         -6.1653   -5.2103   -2.6678 F         1 <0>        -0.1692
     22 H1          1.0039    1.9031    0.0027 H         1 <0>         0.0516
     23 H2         -0.5459    1.8868   -0.8726 H         1 <0>         0.0653
     24 H3         -0.5289    1.8773    0.9072 H         1 <0>         0.0496
     25 H4          0.5123   -0.3556   -0.8948 H         1 <0>         0.0637
     26 H5          0.5293   -0.3651    0.8851 H         1 <0>         0.0691
     27 H6         -1.9690   -0.0971    0.8558 H         1 <0>         0.0904
     28 H7         -0.7987   -2.4931   -0.6212 H         1 <0>         0.0716
     29 H8         -0.9858   -2.3135    1.1425 H         1 <0>         0.0809
     30 H9         -2.8443   -3.6728    0.1586 H         1 <0>         0.0840
     31 H10        -3.4556   -2.1501    0.8619 H         1 <0>         0.0821
     32 H11        -4.4739   -3.9299   -1.5193 H         1 <0>         0.1298
     33 H12        -5.6887   -2.0741   -3.1467 H         1 <0>         0.1214
     34 H13        -2.8255   -2.1357   -4.1510 H         1 <0>         0.0900
     35 H14        -2.9216    0.3024   -3.6241 H         1 <0>         0.1052
     36 H15        -4.2356   -0.3904   -5.6631 H         1 <0>         0.4156
     37 H16        -5.2658   -4.4402   -6.1471 H         1 <0>         0.1687
     38 H17        -4.5512    0.0711   -2.9316 H         1 <0>         0.1015
@<TRIPOS>BOND
     1    1    2 1
     2    1   22 1
     3    1   23 1
     4    1   24 1
     5    2    3 1
     6    2   25 1
     7    2   26 1
     8    3   12 1
     9    3    4 1
    10    3   27 1
    11    4    5 1
    12    4   28 1
    13    4   29 1
    14    5    6 1
    15    5   30 1
    16    5   31 1
    17    6   11 1
    18    6    7 2
    19    7    8 1
    20    7   32 1
    21    8   17 1
    22    8    9 1
    23    8   33 1
    24    9   10 1
    25    9   13 1
    26    9   34 1
    27   10   11 1
    28   10   35 1
    29   10   38 1
    30   11   12 2
    31   13   14 am
    32   13   36 1
    33   14   15 2
    34   14   16 1
    35   16   17 2
    36   16   37 1
    37   17   18 1
    38   18   19 1
    39   18   20 1
    40   18   21 1
@<TRIPOS>MOLECULE
CHEMBL244600__3
   38    40     0     0     0
SMALL
USER_CHARGES

@<TRIPOS>ATOM
      1 C1         -0.0187    1.5258    0.0104 C.3       1 <0>        -0.1467
      2 C2          0.0021   -0.0041    0.0020 C.3       1 <0>        -0.1059
      3 C3         -1.4333   -0.5336    0.0129 C.3       1 <0>         0.0739
      4 C4         -1.4046   -2.0530    0.1774 C.3       1 <0>        -0.1447
      5 C5         -2.8392   -2.5910    0.0577 C.3       1 <0>        -0.0843
      6 C6         -3.3498   -2.1933   -1.3099 C.2       1 <0>        -0.1281
      7 C7         -4.1186   -3.0055   -2.0099 C.2       1 <0>        -0.1112
      8 C8         -4.6327   -2.6695   -3.3806 C.3       1 <0>        -0.0313
      9 C9         -3.7682   -1.6075   -4.0482 C.3       1 <0>         0.1519
     10 C10        -3.5971   -0.4022   -3.1226 C.3       1 <0>        -0.0799
     11 C11        -2.9569   -0.8753   -1.8375 C.2       1 <0>         0.2016
     12 N1         -2.0937   -0.1462   -1.2263 N.2       1 <0>        -0.5007
     13 N2         -2.4650   -2.1577   -4.4127 N.am      1 <0>        -0.7131
     14 C12        -2.3749   -3.4148   -4.8920 C.2       1 <0>         0.5528
     15 O1         -1.3102   -3.8407   -5.2972 O.2       1 <0>        -0.5153
     16 C13        -3.5735   -4.2681   -4.9210 C.2       1 <0>        -0.0961
     17 C14        -4.6498   -3.9212   -4.2223 C.2       1 <0>        -0.1580
     18 C15        -5.8880   -4.7790   -4.2711 C.3       1 <0>         0.5048
     19 F1         -5.6633   -5.8748   -5.1112 F         1 <0>        -0.1717
     20 F2         -6.1917   -5.2332   -2.9833 F         1 <0>        -0.1703
     21 F3         -6.9584   -4.0251   -4.7642 F         1 <0>        -0.1690
     22 H1          1.0039    1.9031    0.0027 H         1 <0>         0.0513
     23 H2         -0.5459    1.8868   -0.8726 H         1 <0>         0.0654
     24 H3         -0.5289    1.8773    0.9072 H         1 <0>         0.0495
     25 H4          0.5123   -0.3556   -0.8948 H         1 <0>         0.0630
     26 H5          0.5293   -0.3651    0.8851 H         1 <0>         0.0683
     27 H6         -1.9688   -0.0948    0.8547 H         1 <0>         0.0896
     28 H7         -0.7830   -2.4932   -0.6023 H         1 <0>         0.0698
     29 H8         -0.9997   -2.3068    1.1571 H         1 <0>         0.0797
     30 H9         -2.8381   -3.6768    0.1527 H         1 <0>         0.0812
     31 H10        -3.4673   -2.1499    0.8316 H         1 <0>         0.0813
     32 H11        -4.3908   -3.9568   -1.5772 H         1 <0>         0.1242
     33 H12        -5.6492   -2.2857   -3.2944 H         1 <0>         0.1253
     34 H13        -4.2620   -1.2788   -4.9626 H         1 <0>         0.0968
     35 H14        -2.9570    0.3396   -3.6003 H         1 <0>         0.1050
     36 H15        -1.6649   -1.6188   -4.3104 H         1 <0>         0.4125
     37 H16        -3.5787   -5.1741   -5.5090 H         1 <0>         0.1656
     38 H17        -4.5713    0.0367   -2.9075 H         1 <0>         0.1130
@<TRIPOS>BOND
     1    1    2 1
     2    1   22 1
     3    1   23 1
     4    1   24 1
     5    2    3 1
     6    2   25 1
     7    2   26 1
     8    3   12 1
     9    3    4 1
    10    3   27 1
    11    4    5 1
    12    4   28 1
    13    4   29 1
    14    5    6 1
    15    5   30 1
    16    5   31 1
    17    6   11 1
    18    6    7 2
    19    7    8 1
    20    7   32 1
    21    8   17 1
    22    8    9 1
    23    8   33 1
    24    9   10 1
    25    9   13 1
    26    9   34 1
    27   10   11 1
    28   10   35 1
    29   10   38 1
    30   11   12 2
    31   13   14 am
    32   13   36 1
    33   14   15 2
    34   14   16 1
    35   16   17 2
    36   16   37 1
    37   17   18 1
    38   18   19 1
    39   18   20 1
    40   18   21 1
@<TRIPOS>MOLECULE
CHEMBL244600__4
   38    40     0     0     0
SMALL
USER_CHARGES

@<TRIPOS>ATOM
      1 C1         -0.0187    1.5258    0.0104 C.3       1 <0>        -0.1467
      2 C2          0.0021   -0.0041    0.0020 C.3       1 <0>        -0.1059
      3 C3         -1.4333   -0.5336    0.0129 C.3       1 <0>         0.0739
      4 C4         -1.4080   -2.0511   -0.1679 C.3       1 <0>        -0.1447
      5 C5         -2.8402   -2.5904   -0.0277 C.3       1 <0>        -0.0844
      6 C6         -3.3272   -2.2060    1.3522 C.2       1 <0>        -0.1280
      7 C7         -4.0863   -3.0242    2.0559 C.2       1 <0>        -0.1112
      8 C8         -4.5780   -2.7012    3.4379 C.3       1 <0>        -0.0314
      9 C9         -3.6992   -1.6496    4.1033 C.3       1 <0>         0.1519
     10 C10        -3.5394   -0.4345    3.1888 C.3       1 <0>        -0.0799
     11 C11        -2.9232   -0.8944    1.8873 C.2       1 <0>         0.2016
     12 N1         -2.0700   -0.1596    1.2686 N.2       1 <0>        -0.5008
     13 N2         -2.3920   -2.2087    4.4394 N.am      1 <0>        -0.7130
     14 C12        -2.2988   -3.4719    4.9015 C.2       1 <0>         0.5527
     15 O1         -1.2286   -3.9071    5.2815 O.2       1 <0>        -0.5154
     16 C13        -3.5002   -4.3207    4.9425 C.2       1 <0>        -0.0960
     17 C14        -4.5870   -3.9617    4.2665 C.2       1 <0>        -0.1581
     18 C15        -5.8283   -4.8140    4.3279 C.3       1 <0>         0.5049
     19 F1         -5.5944   -5.9198    5.1525 F         1 <0>        -0.1717
     20 F2         -6.8862   -4.0604    4.8475 F         1 <0>        -0.1690
     21 F3         -6.1566   -5.2532    3.0409 F         1 <0>        -0.1703
     22 H1          1.0039    1.9031    0.0027 H         1 <0>         0.0513
     23 H2         -0.5459    1.8868   -0.8726 H         1 <0>         0.0495
     24 H3         -0.5289    1.8773    0.9072 H         1 <0>         0.0654
     25 H4          0.5123   -0.3556   -0.8948 H         1 <0>         0.0683
     26 H5          0.5293   -0.3651    0.8851 H         1 <0>         0.0630
     27 H6         -1.9848   -0.0860   -0.8139 H         1 <0>         0.0896
     28 H7         -1.0210   -2.2948   -1.1573 H         1 <0>         0.0797
     29 H8         -0.7724   -2.4994    0.5958 H         1 <0>         0.0697
     30 H9         -3.4818   -2.1424   -0.7864 H         1 <0>         0.0813
     31 H10        -2.8406   -3.6754   -0.1330 H         1 <0>         0.0812
     32 H11        -4.3677   -3.9702    1.6176 H         1 <0>         0.1242
     33 H12        -5.5942   -2.3127    3.3715 H         1 <0>         0.1252
     34 H13        -4.1766   -1.3299    5.0295 H         1 <0>         0.0969
     35 H14        -4.5155    0.0105    2.9958 H         1 <0>         0.1130
     36 H15        -1.5917   -1.6717    4.3299 H         1 <0>         0.4125
     37 H16        -3.4989   -5.2331    5.5204 H         1 <0>         0.1656
     38 H17        -2.8884    0.2994    3.6640 H         1 <0>         0.1050
@<TRIPOS>BOND
     1    1    2 1
     2    1   22 1
     3    1   23 1
     4    1   24 1
     5    2    3 1
     6    2   25 1
     7    2   26 1
     8    3   12 1
     9    3    4 1
    10    3   27 1
    11    4    5 1
    12    4   28 1
    13    4   29 1
    14    5    6 1
    15    5   30 1
    16    5   31 1
    17    6   11 1
    18    6    7 2
    19    7    8 1
    20    7   32 1
    21    8   17 1
    22    8    9 1
    23    8   33 1
    24    9   10 1
    25    9   13 1
    26    9   34 1
    27   10   11 1
    28   10   35 1
    29   10   38 1
    30   11   12 2
    31   13   14 am
    32   13   36 1
    33   14   15 2
    34   14   16 1
    35   16   17 2
    36   16   37 1
    37   17   18 1
    38   18   19 1
    39   18   20 1
    40   18   21 1
@<TRIPOS>MOLECULE
CHEMBL244600__5
   38    40     0     0     0
SMALL
USER_CHARGES

@<TRIPOS>ATOM
      1 C1         -0.0187    1.5258    0.0104 C.3       1 <0>        -0.1475
      2 C2          0.0021   -0.0041    0.0020 C.3       1 <0>        -0.1056
      3 C3         -1.4333   -0.5336    0.0129 C.3       1 <0>         0.0723
      4 C4         -1.4090   -2.0525   -0.1618 C.3       1 <0>        -0.1448
      5 C5         -2.8449   -2.5856   -0.0417 C.3       1 <0>        -0.0855
      6 C6         -3.3571   -2.1908    1.3261 C.2       1 <0>        -0.1277
      7 C7         -4.1598   -3.0001    2.0020 C.2       1 <0>        -0.1137
      8 C8         -4.6802   -2.6322    3.3570 C.3       1 <0>        -0.0359
      9 C9         -3.7095   -1.6844    4.0623 C.3       1 <0>         0.1513
     10 C10        -3.5290   -0.4358    3.1952 C.3       1 <0>        -0.0766
     11 C11        -2.9344   -0.8919    1.8776 C.2       1 <0>         0.2048
     12 N1         -2.0712   -0.1601    1.2685 N.2       1 <0>        -0.4972
     13 N2         -4.2369   -1.3455    5.3821 N.am      1 <0>        -0.7178
     14 C12        -4.8813   -2.2991    6.0932 C.2       1 <0>         0.5527
     15 O1         -5.3638   -2.0329    7.1773 O.2       1 <0>        -0.5102
     16 C13        -4.9952   -3.6634    5.5450 C.2       1 <0>        -0.1011
     17 C14        -4.9064   -3.8410    4.2225 C.2       1 <0>        -0.1572
     18 C15        -5.0301   -5.2150    3.6160 C.3       1 <0>         0.5072
     19 F1         -5.2348   -6.1560    4.6309 F         1 <0>        -0.1712
     20 F2         -6.1145   -5.2388    2.7324 F         1 <0>        -0.1692
     21 F3         -3.8559   -5.5258    2.9218 F         1 <0>        -0.1672
     22 H1          1.0039    1.9031    0.0027 H         1 <0>         0.0516
     23 H2         -0.5459    1.8868   -0.8726 H         1 <0>         0.0496
     24 H3         -0.5289    1.8773    0.9072 H         1 <0>         0.0653
     25 H4          0.5123   -0.3556   -0.8948 H         1 <0>         0.0691
     26 H5          0.5293   -0.3651    0.8851 H         1 <0>         0.0637
     27 H6         -1.9850   -0.0881   -0.8149 H         1 <0>         0.0904
     28 H7         -1.0077   -2.3011   -1.1443 H         1 <0>         0.0809
     29 H8         -0.7869   -2.4997    0.6135 H         1 <0>         0.0716
     30 H9         -3.4715   -2.1412   -0.8150 H         1 <0>         0.0821
     31 H10        -2.8471   -3.6712   -0.1396 H         1 <0>         0.0840
     32 H11        -4.4448   -3.9462    1.5659 H         1 <0>         0.1298
     33 H12        -5.6282   -2.1081    3.2359 H         1 <0>         0.1214
     34 H13        -2.7466   -2.1804    4.1849 H         1 <0>         0.0899
     35 H14        -4.4945    0.0397    3.0227 H         1 <0>         0.1016
     36 H15        -4.1266   -0.4518    5.7425 H         1 <0>         0.4155
     37 H16        -5.1478   -4.5068    6.2021 H         1 <0>         0.1687
     38 H17        -2.8519    0.2631    3.6863 H         1 <0>         0.1051
@<TRIPOS>BOND
     1    1    2 1
     2    1   22 1
     3    1   23 1
     4    1   24 1
     5    2    3 1
     6    2   25 1
     7    2   26 1
     8    3   12 1
     9    3    4 1
    10    3   27 1
    11    4    5 1
    12    4   28 1
    13    4   29 1
    14    5    6 1
    15    5   30 1
    16    5   31 1
    17    6   11 1
    18    6    7 2
    19    7    8 1
    20    7   32 1
    21    8   17 1
    22    8    9 1
    23    8   33 1
    24    9   10 1
    25    9   13 1
    26    9   34 1
    27   10   11 1
    28   10   35 1
    29   10   38 1
    30   11   12 2
    31   13   14 am
    32   13   36 1
    33   14   15 2
    34   14   16 1
    35   16   17 2
    36   16   37 1
    37   17   18 1
    38   18   19 1
    39   18   20 1
    40   18   21 1
@<TRIPOS>MOLECULE
CHEMBL244600__6
   38    40     0     0     0
SMALL
USER_CHARGES

@<TRIPOS>ATOM
      1 C1         -0.0187    1.5258    0.0104 C.3       1 <0>        -0.1485
      2 C2          0.0021   -0.0041    0.0020 C.3       1 <0>        -0.1188
      3 C3         -1.4333   -0.5336    0.0129 C.3       1 <0>         0.0724
      4 C4         -1.4090   -2.0525   -0.1617 C.3       1 <0>        -0.1460
      5 C5         -0.7247   -2.6787    1.0632 C.3       1 <0>        -0.0862
      6 C6         -1.5248   -2.2714    2.2809 C.2       1 <0>        -0.1273
      7 C7         -1.6759   -3.1093    3.2964 C.2       1 <0>        -0.1134
      8 C8         -2.4627   -2.7297    4.5126 C.3       1 <0>        -0.0360
      9 C9         -3.5285   -1.6925    4.1567 C.3       1 <0>         0.1512
     10 C10        -2.8354   -0.4664    3.5566 C.3       1 <0>        -0.0771
     11 C11        -2.1278   -0.9275    2.2979 C.2       1 <0>         0.2068
     12 N1         -2.0712   -0.1601    1.2685 N.2       1 <0>        -0.4970
     13 N2         -4.2841   -1.3435    5.3576 N.am      1 <0>        -0.7178
     14 C12        -4.5640   -2.3130    6.2587 C.2       1 <0>         0.5527
     15 O1         -5.1580   -2.0419    7.2847 O.2       1 <0>        -0.5103
     16 C13        -4.1446   -3.7006    5.9884 C.2       1 <0>        -0.1012
     17 C14        -3.1253   -3.9193    5.1508 C.2       1 <0>        -0.1572
     18 C15        -2.6533   -5.3196    4.8548 C.3       1 <0>         0.5073
     19 F1         -3.4320   -6.2352    5.5707 F         1 <0>        -0.1712
     20 F2         -2.7767   -5.5734    3.4846 F         1 <0>        -0.1672
     21 F3         -1.3131   -5.4499    5.2344 F         1 <0>        -0.1692
     22 H1          1.0039    1.9031    0.0027 H         1 <0>         0.0524
     23 H2         -0.5459    1.8868   -0.8726 H         1 <0>         0.0551
     24 H3         -0.5289    1.8773    0.9072 H         1 <0>         0.0614
     25 H4          0.5123   -0.3556   -0.8948 H         1 <0>         0.0724
     26 H5          0.5293   -0.3651    0.8851 H         1 <0>         0.0624
     27 H6         -1.9850   -0.0881   -0.8149 H         1 <0>         0.0996
     28 H7         -2.4292   -2.4277   -0.2421 H         1 <0>         0.0705
     29 H8         -0.8511   -2.3081   -1.0626 H         1 <0>         0.0810
     30 H9         -0.7180   -3.7646    0.9698 H         1 <0>         0.0826
     31 H10         0.2962   -2.3064    1.1486 H         1 <0>         0.0843
     32 H11        -1.2217   -4.0879    3.2456 H         1 <0>         0.1298
     33 H12        -1.7866   -2.2768    5.2379 H         1 <0>         0.1214
     34 H13        -4.2123   -2.1162    3.4211 H         1 <0>         0.0900
     35 H14        -3.5753    0.2949    3.3093 H         1 <0>         0.1054
     36 H15        -4.5798   -0.4318    5.5064 H         1 <0>         0.4156
     37 H16        -4.6530   -4.5283    6.4604 H         1 <0>         0.1687
     38 H17        -2.1105   -0.0654    4.2649 H         1 <0>         0.1017
@<TRIPOS>BOND
     1    1    2 1
     2    1   22 1
     3    1   23 1
     4    1   24 1
     5    2    3 1
     6    2   25 1
     7    2   26 1
     8    3   12 1
     9    3    4 1
    10    3   27 1
    11    4    5 1
    12    4   28 1
    13    4   29 1
    14    5    6 1
    15    5   30 1
    16    5   31 1
    17    6   11 1
    18    6    7 2
    19    7    8 1
    20    7   32 1
    21    8   17 1
    22    8    9 1
    23    8   33 1
    24    9   10 1
    25    9   13 1
    26    9   34 1
    27   10   11 1
    28   10   35 1
    29   10   38 1
    30   11   12 2
    31   13   14 am
    32   13   36 1
    33   14   15 2
    34   14   16 1
    35   16   17 2
    36   16   37 1
    37   17   18 1
    38   18   19 1
    39   18   20 1
    40   18   21 1
@<TRIPOS>MOLECULE
CHEMBL244600__7
   38    40     0     0     0
SMALL
USER_CHARGES

@<TRIPOS>ATOM
      1 C1         -0.0187    1.5258    0.0104 C.3       1 <0>        -0.1477
      2 C2          0.0021   -0.0041    0.0020 C.3       1 <0>        -0.1052
      3 C3         -1.4333   -0.5336    0.0129 C.3       1 <0>         0.0721
      4 C4         -1.4078   -2.0510   -0.1693 C.3       1 <0>        -0.1446
      5 C5         -2.8396   -2.5909   -0.0284 C.3       1 <0>        -0.0857
      6 C6         -3.3264   -2.2055    1.3507 C.2       1 <0>        -0.1147
      7 C7         -4.0867   -3.0229    2.0560 C.2       1 <0>        -0.1243
      8 C8         -4.5749   -2.6928    3.4341 C.3       1 <0>        -0.0301
      9 C9         -3.6888   -1.6523    4.1074 C.3       1 <0>         0.1556
     10 C10        -3.5414   -0.4329    3.1873 C.3       1 <0>        -0.0910
     11 C11        -2.9238   -0.8939    1.8869 C.2       1 <0>         0.2050
     12 N1         -2.0697   -0.1595    1.2686 N.2       1 <0>        -0.4982
     13 N2         -4.2844   -1.2222    5.3742 N.am      1 <0>        -0.7165
     14 C12        -5.6175   -1.0670    5.4805 C.2       1 <0>         0.5528
     15 O1         -6.0986   -0.5998    6.4950 O.2       1 <0>        -0.5123
     16 C13        -6.4902   -1.4644    4.3644 C.2       1 <0>        -0.1082
     17 C14        -6.0024   -2.2230    3.3868 C.2       1 <0>        -0.1478
     18 C15        -6.8833   -2.6125    2.2277 C.3       1 <0>         0.5037
     19 F1         -8.1571   -2.0617    2.4044 F         1 <0>        -0.1730
     20 F2         -6.3280   -2.1309    1.0374 F         1 <0>        -0.1652
     21 F3         -6.9826   -4.0066    2.1654 F         1 <0>        -0.1707
     22 H1          1.0039    1.9031    0.0027 H         1 <0>         0.0514
     23 H2         -0.5459    1.8868   -0.8726 H         1 <0>         0.0496
     24 H3         -0.5289    1.8773    0.9072 H         1 <0>         0.0653
     25 H4          0.5123   -0.3556   -0.8948 H         1 <0>         0.0687
     26 H5          0.5293   -0.3651    0.8851 H         1 <0>         0.0633
     27 H6         -1.9847   -0.0855   -0.8137 H         1 <0>         0.0901
     28 H7         -1.0215   -2.2936   -1.1593 H         1 <0>         0.0804
     29 H8         -0.7714   -2.4998    0.5934 H         1 <0>         0.0711
     30 H9         -3.4816   -2.1439   -0.7875 H         1 <0>         0.0830
     31 H10        -2.8395   -3.6759   -0.1326 H         1 <0>         0.0840
     32 H11        -4.3692   -3.9702    1.6209 H         1 <0>         0.1299
     33 H12        -4.5352   -3.6006    4.0360 H         1 <0>         0.1189
     34 H13        -2.7059   -2.0826    4.2992 H         1 <0>         0.1157
     35 H14        -4.5217    0.0029    2.9946 H         1 <0>         0.0909
     36 H15        -3.7156   -1.0480    6.1404 H         1 <0>         0.4156
     37 H16        -7.5205   -1.1417    4.3390 H         1 <0>         0.1669
     38 H17        -2.8955    0.3076    3.6590 H         1 <0>         0.1013
@<TRIPOS>BOND
     1    1    2 1
     2    1   22 1
     3    1   23 1
     4    1   24 1
     5    2    3 1
     6    2   25 1
     7    2   26 1
     8    3   12 1
     9    3    4 1
    10    3   27 1
    11    4    5 1
    12    4   28 1
    13    4   29 1
    14    5    6 1
    15    5   30 1
    16    5   31 1
    17    6   11 1
    18    6    7 2
    19    7    8 1
    20    7   32 1
    21    8   17 1
    22    8    9 1
    23    8   33 1
    24    9   10 1
    25    9   13 1
    26    9   34 1
    27   10   11 1
    28   10   35 1
    29   10   38 1
    30   11   12 2
    31   13   14 am
    32   13   36 1
    33   14   15 2
    34   14   16 1
    35   16   17 2
    36   16   37 1
    37   17   18 1
    38   18   19 1
    39   18   20 1
    40   18   21 1
@<TRIPOS>MOLECULE
CHEMBL378087
   33    36     0     0     0
SMALL
USER_CHARGES

@<TRIPOS>ATOM
      1 C1         -0.0178    1.4608    0.0101 C.3       1 <0>         0.0654
      2 N1          0.0021   -0.0041    0.0020 N.pl3     1 <0>        -0.4607
      3 C2         -0.0895   -0.7887   -1.1167 C.ar      1 <0>         0.0972
      4 C3         -0.2104   -0.4636   -2.4658 C.ar      1 <0>        -0.1118
      5 C4         -0.2815   -1.5124   -3.3651 C.ar      1 <0>        -0.1191
      6 C5         -0.2351   -2.8409   -2.9588 C.ar      1 <0>         0.0757
      7 C6         -0.1149   -3.1936   -1.6237 C.ar      1 <0>        -0.0887
      8 C7         -0.0420   -2.1456   -0.6964 C.ar      1 <0>        -0.0847
      9 C8          0.0815   -2.1187    0.7377 C.2       1 <0>        -0.1401
     10 C9          0.1208   -0.7970    1.1100 C.2       1 <0>         0.0912
     11 C10         0.2516   -0.4384    2.5344 C.ar      1 <0>         0.0238
     12 C11        -0.0068    0.8408    3.0158 C.ar      1 <0>        -0.1763
     13 C12         0.1186    1.0699    4.3734 C.ar      1 <0>         0.1055
     14 N2          0.4715    0.0960    5.1913 N.ar      1 <0>        -0.4848
     15 C13         0.7337   -1.1270    4.7689 C.ar      1 <0>         0.1091
     16 C14         0.6482   -1.4416    3.4285 C.ar      1 <0>        -0.1165
     17 C15         1.0125   -2.8127    2.9346 C.3       1 <0>        -0.0758
     18 C16         0.1526   -3.2392    1.7394 C.3       1 <0>        -0.0452
     19 O1         -0.3101   -3.8221   -3.8973 O.3       1 <0>        -0.5000
     20 H1          1.0043    1.8378    0.0472 H         1 <0>         0.0759
     21 H2         -0.5059    1.8225   -0.8949 H         1 <0>         0.0893
     22 H3         -0.5665    1.8119    0.8840 H         1 <0>         0.0879
     23 H4         -0.2473    0.5640   -2.7958 H         1 <0>         0.1329
     24 H5         -0.3766   -1.2917   -4.4180 H         1 <0>         0.1304
     25 H6         -0.0794   -4.2273   -1.3127 H         1 <0>         0.1381
     26 H7         -0.2980    1.6358    2.3453 H         1 <0>         0.1398
     27 H8         -0.0739    2.0563    4.7688 H         1 <0>         0.1604
     28 H9          1.0178   -1.8888    5.4798 H         1 <0>         0.1618
     29 H10         2.0623   -2.8158    2.6413 H         1 <0>         0.0840
     30 H11         0.8706   -3.5295    3.7434 H         1 <0>         0.0874
     31 H12        -0.8539   -3.4888    2.0752 H         1 <0>         0.0780
     32 H13         0.6040   -4.1143    1.2720 H         1 <0>         0.0831
     33 H14         0.5481   -4.0989   -4.2464 H         1 <0>         0.3869
@<TRIPOS>BOND
     1    1    2 1
     2    1   20 1
     3    1   21 1
     4    1   22 1
     5    2   10 1
     6    2    3 1
     7    3    8 ar
     8    3    4 ar
     9    4    5 ar
    10    4   23 1
    11    5    6 ar
    12    5   24 1
    13    6    7 ar
    14    6   19 1
    15    7    8 ar
    16    7   25 1
    17    8    9 1
    18    9   18 1
    19    9   10 2
    20   10   11 1
    21   11   16 ar
    22   11   12 ar
    23   12   13 ar
    24   12   26 1
    25   13   14 ar
    26   13   27 1
    27   14   15 ar
    28   15   16 ar
    29   15   28 1
    30   16   17 1
    31   17   18 1
    32   17   29 1
    33   17   30 1
    34   18   31 1
    35   18   32 1
    36   19   33 1
@<TRIPOS>MOLECULE
CHEMBL296323
   31    31     0     0     0
SMALL
USER_CHARGES

@<TRIPOS>ATOM
      1 C1         -0.6840    1.8895   -0.5009 C.3       1 <0>        -0.1497
      2 C2          0.0021    0.5520   -0.2158 C.3       1 <0>         0.1287
      3 C3          1.0225    0.7320    0.9100 C.3       1 <0>        -0.1053
      4 Br1         0.0864    1.2013    2.5739 Br        1 <0>        -0.1185
      5 C4          0.7056    0.0732   -1.4596 C.2       1 <0>         0.4986
      6 O1          1.8836    0.3133   -1.6205 O.2       1 <0>        -0.4980
      7 N1          0.0259   -0.6217   -2.3931 N.am      1 <0>        -0.6618
      8 C5          0.6526   -0.9824   -3.5910 C.ar      1 <0>         0.1965
      9 C6          1.9999   -1.3196   -3.5975 C.ar      1 <0>        -0.0951
     10 C7          2.6155   -1.6751   -4.7814 C.ar      1 <0>        -0.0287
     11 C8          1.8918   -1.6956   -5.9598 C.ar      1 <0>        -0.0246
     12 C9          0.5506   -1.3600   -5.9568 C.ar      1 <0>        -0.1027
     13 C10        -0.0725   -1.0095   -4.7749 C.ar      1 <0>        -0.0973
     14 C11        -0.2339   -1.3828   -7.2433 C.3       1 <0>         0.5148
     15 F1         -1.5578   -1.0089   -6.9889 F         1 <0>        -0.1716
     16 F2          0.3370   -0.4869   -8.1536 F         1 <0>        -0.1571
     17 F3         -0.2092   -2.6738   -7.7818 F         1 <0>        -0.1571
     18 N2          2.5548   -2.0771   -7.2270 N.pl3     1 <0>         0.0263
     19 O2          3.7277   -2.3704   -7.2312 O.2       1 <0>        -0.1367
     20 O3          1.9235   -2.0955   -8.2579 O.3       1 <0>        -0.1416
     21 O4         -0.9771   -0.4113    0.1783 O.3       1 <0>        -0.5313
     22 H1          0.0629    2.6242   -0.8015 H         1 <0>         0.0842
     23 H2         -1.4109    1.7613   -1.3029 H         1 <0>         0.0771
     24 H3         -1.1929    2.2358    0.3987 H         1 <0>         0.0948
     25 H4          1.5735   -0.1975    1.0529 H         1 <0>         0.1082
     26 H5          1.7172    1.5295    0.6466 H         1 <0>         0.1228
     27 H6         -0.8978   -0.8718   -2.2345 H         1 <0>         0.4288
     28 H7          2.5656   -1.3034   -2.6777 H         1 <0>         0.1709
     29 H8          3.6632   -1.9370   -4.7872 H         1 <0>         0.1719
     30 H9         -1.1215   -0.7525   -4.7723 H         1 <0>         0.1676
     31 H10        -0.6124   -1.2849    0.3751 H         1 <0>         0.3860
@<TRIPOS>BOND
     1    1    2 1
     2    1   22 1
     3    1   23 1
     4    1   24 1
     5    2    3 1
     6    2    5 1
     7    2   21 1
     8    3    4 1
     9    3   25 1
    10    3   26 1
    11    5    6 2
    12    5    7 am
    13    7    8 1
    14    7   27 1
    15    8   13 ar
    16    8    9 ar
    17    9   10 ar
    18    9   28 1
    19   10   11 ar
    20   10   29 1
    21   11   12 ar
    22   11   18 1
    23   12   13 ar
    24   12   14 1
    25   13   30 1
    26   14   15 1
    27   14   16 1
    28   14   17 1
    29   18   19 2
    30   18   20 1
    31   21   31 1
@<TRIPOS>MOLECULE
CHEMBL1209970
   55    59     0     0     0
SMALL
USER_CHARGES

@<TRIPOS>ATOM
      1 C1          0.0743    1.4920    0.1863 C.3       1 <0>        -0.1397
      2 C2          0.1010   -0.0074   -0.1170 C.3       1 <0>         0.1065
      3 C3         -1.2475   -0.6780    0.1955 C.3       1 <0>         0.0997
      4 N1         -1.1326   -2.1057   -0.1474 N.am      1 <0>        -0.6133
      5 C4          0.0668   -2.8323    0.3022 C.3       1 <0>         0.0836
      6 C5          1.2948   -1.9636   -0.0185 C.3       1 <0>         0.1052
      7 O1          1.1166   -0.6940    0.6474 O.3       1 <0>        -0.3409
      8 C6          1.2625   -1.6259   -1.5256 C.3       1 <0>        -0.1405
      9 H1          0.8324   -2.4238   -2.1309 H         1 <0>         0.1492
     10 C7          0.4593   -0.2902   -1.5929 C.3       1 <0>        -0.1418
     11 H2         -0.4169   -0.3575   -2.2377 H         1 <0>         0.1497
     12 C8          1.4760    0.7273   -2.0588 C.2       1 <0>         0.5431
     13 O2          1.2544    1.9046   -2.2441 O.2       1 <0>        -0.4518
     14 N2          2.6584    0.1263   -2.2342 N.am      1 <0>        -0.5421
     15 C9          2.6504   -1.2276   -1.9741 C.2       1 <0>         0.5454
     16 O3          3.5982   -1.9776   -2.0678 O.2       1 <0>        -0.4385
     17 C10         3.7997    0.8126   -2.6625 C.ar      1 <0>         0.1399
     18 C11         4.8775    0.9729   -1.7987 C.ar      1 <0>        -0.0669
     19 C12         6.0025    1.6482   -2.2166 C.ar      1 <0>        -0.0558
     20 C13         6.0603    2.1725   -3.5109 C.ar      1 <0>         0.0408
     21 C14         4.9754    2.0089   -4.3761 C.ar      1 <0>        -0.1303
     22 C15         3.8555    1.3276   -3.9525 C.ar      1 <0>        -0.0533
     23 C16         5.0323    2.5726   -5.7726 C.3       1 <0>         0.5072
     24 F1          3.8380    2.2834   -6.4413 F         1 <0>        -0.1680
     25 F2          5.2071    3.9592   -5.7090 F         1 <0>        -0.1668
     26 F3          6.1046    1.9986   -6.4638 F         1 <0>        -0.1676
     27 C17         7.2282    2.8758   -3.9491 C.1       1 <0>         0.2267
     28 N3          8.1547    3.4337   -4.2967 N.1       1 <0>        -0.3626
     29 C18         2.5991   -2.6476    0.3962 C.3       1 <0>        -0.1401
     30 C19        -2.0976   -2.7293   -0.8519 C.2       1 <0>         0.5653
     31 O4         -3.1119   -2.1316   -1.1544 O.2       1 <0>        -0.5210
     32 C20        -1.9225   -4.1404   -1.2569 C.ar      1 <0>        -0.1348
     33 C21        -1.4674   -5.0832   -0.3338 C.ar      1 <0>        -0.0947
     34 C22        -1.3066   -6.3984   -0.7180 C.ar      1 <0>        -0.1219
     35 C23        -1.5950   -6.7835   -2.0153 C.ar      1 <0>        -0.0942
     36 C24        -2.0461   -5.8538   -2.9353 C.ar      1 <0>        -0.1208
     37 C25        -2.2171   -4.5367   -2.5624 C.ar      1 <0>        -0.0682
     38 H3          1.0495    1.9251   -0.0361 H         1 <0>         0.0742
     39 H4         -0.6860    1.9736   -0.4286 H         1 <0>         0.0890
     40 H5         -0.1596    1.6454    1.2398 H         1 <0>         0.0788
     41 H6         -1.4759   -0.5705    1.2558 H         1 <0>         0.0912
     42 H7         -2.0353   -0.2177   -0.4008 H         1 <0>         0.1108
     43 H8          0.0101   -3.0084    1.3764 H         1 <0>         0.0938
     44 H9          0.1405   -3.7837   -0.2246 H         1 <0>         0.1122
     45 H10         4.8322    0.5675   -0.7987 H         1 <0>         0.1514
     46 H11         6.8390    1.7729   -1.5449 H         1 <0>         0.1597
     47 H12         3.0182    1.1973   -4.6220 H         1 <0>         0.1547
     48 H13         2.7058   -3.5865   -0.1472 H         1 <0>         0.0888
     49 H14         3.4411   -1.9956    0.1637 H         1 <0>         0.0730
     50 H15         2.5797   -2.8479    1.4674 H         1 <0>         0.0807
     51 H16        -1.2412   -4.7837    0.6789 H         1 <0>         0.1307
     52 H17        -0.9544   -7.1289   -0.0048 H         1 <0>         0.1317
     53 H18        -1.4671   -7.8143   -2.3111 H         1 <0>         0.1294
     54 H19        -2.2691   -6.1609   -3.9465 H         1 <0>         0.1318
     55 H20        -2.5740   -3.8129   -3.2802 H         1 <0>         0.1313
@<TRIPOS>BOND
     1    1    2 1
     2    1   38 1
     3    1   39 1
     4    1   40 1
     5    2    7 1
     6    2   10 1
     7    2    3 1
     8    3    4 1
     9    3   41 1
    10    3   42 1
    11    4    5 1
    12    4   30 am
    13    5    6 1
    14    5   43 1
    15    5   44 1
    16    6    7 1
    17    6    8 1
    18    6   29 1
    19    8    9 1
    20    8   15 1
    21    8   10 1
    22   10   11 1
    23   10   12 1
    24   12   13 2
    25   12   14 am
    26   14   15 am
    27   14   17 1
    28   15   16 2
    29   17   22 ar
    30   17   18 ar
    31   18   19 ar
    32   18   45 1
    33   19   20 ar
    34   19   46 1
    35   20   21 ar
    36   20   27 1
    37   21   22 ar
    38   21   23 1
    39   22   47 1
    40   23   24 1
    41   23   25 1
    42   23   26 1
    43   27   28 3
    44   29   48 1
    45   29   49 1
    46   29   50 1
    47   30   31 2
    48   30   32 1
    49   32   37 ar
    50   32   33 ar
    51   33   34 ar
    52   33   51 1
    53   34   35 ar
    54   34   52 1
    55   35   36 ar
    56   35   53 1
    57   36   37 ar
    58   36   54 1
    59   37   55 1
@<TRIPOS>MOLECULE
CHEMBL397343
   52    56     0     0     0
SMALL
USER_CHARGES

@<TRIPOS>ATOM
      1 C1         -0.0187    1.5258    0.0104 C.3       1 <0>        -0.1329
      2 C2          0.0021   -0.0041    0.0020 C.3       1 <0>        -0.0575
      3 C3         -1.4159   -0.5393    0.0759 C.3       1 <0>        -0.1031
      4 C4         -2.0760    0.0885    1.3131 C.3       1 <0>        -0.1250
      5 C5         -1.2921   -0.2152    2.5876 C.3       1 <0>        -0.0666
      6 H1         -1.3223   -1.2911    2.7599 H         1 <0>         0.0674
      7 C6          0.1751    0.2124    2.4653 C.3       1 <0>        -0.0693
      8 H2          0.2488    1.2926    2.3397 H         1 <0>         0.0858
      9 C7          0.7509   -0.5288    1.2560 C.3       1 <0>        -0.0834
     10 H3          0.6134   -1.6053    1.3577 H         1 <0>         0.0769
     11 C8          2.2059   -0.1942    0.9119 C.3       1 <0>        -0.1136
     12 C9          2.3037   -0.5771   -0.5904 C.3       1 <0>        -0.1571
     13 C10         0.8626   -0.5047   -1.1542 C.3       1 <0>         0.1104
     14 H4          0.5309   -1.4934   -1.4713 H         1 <0>         0.0566
     15 O1          0.8044    0.4128   -2.2482 O.3       1 <0>        -0.5598
     16 C11         0.9075   -0.2307    3.7374 C.3       1 <0>        -0.0827
     17 C12         0.2155    0.3736    4.9230 C.2       1 <0>        -0.1609
     18 C13        -1.0492    0.6827    4.9329 C.2       1 <0>        -0.1009
     19 C14        -1.9597    0.4783    3.7712 C.3       1 <0>        -0.0084
     20 C15        -3.1783   -0.3505    4.1911 C.3       1 <0>        -0.1133
     21 C16        -3.5969   -0.0801    5.6222 C.3       1 <0>        -0.1409
     22 C17        -3.1060    1.2386    6.1616 C.3       1 <0>         0.0938
     23 H5         -3.4734    1.3378    7.1831 H         1 <0>         0.0876
     24 C18        -1.6047    1.2906    6.2060 C.3       1 <0>        -0.1108
     25 O2         -3.5499    2.3838    5.4257 O.3       1 <0>        -0.3725
     26 C19        -3.7310    2.1740    4.0357 C.3       1 <0>         0.0532
     27 C20        -2.4822    1.8433    3.3062 C.3       1 <0>        -0.1667
     28 H6          1.0039    1.9031    0.0027 H         1 <0>         0.0540
     29 H7         -0.5459    1.8868   -0.8726 H         1 <0>         0.0592
     30 H8         -0.5289    1.8773    0.9072 H         1 <0>         0.0596
     31 H9         -1.9662   -0.2571   -0.8217 H         1 <0>         0.0665
     32 H10        -1.3981   -1.6246    0.1754 H         1 <0>         0.0618
     33 H11        -2.1295    1.1688    1.1777 H         1 <0>         0.0817
     34 H12        -3.0870   -0.3059    1.4152 H         1 <0>         0.0628
     35 H13         2.4009    0.8689    1.0526 H         1 <0>         0.0706
     36 H14         2.8916   -0.7956    1.5088 H         1 <0>         0.0659
     37 H15         2.9468    0.1292   -1.1154 H         1 <0>         0.0723
     38 H16         2.6955   -1.5889   -0.6938 H         1 <0>         0.0665
     39 H17         1.3328    0.1468   -3.0131 H         1 <0>         0.3749
     40 H18         0.8827   -1.3178    3.8141 H         1 <0>         0.0718
     41 H19         1.9414    0.1127    3.7028 H         1 <0>         0.0708
     42 H20         0.7960    0.5616    5.8141 H         1 <0>         0.1026
     43 H21        -4.0112   -0.1135    3.5291 H         1 <0>         0.0713
     44 H22        -2.9379   -1.4086    4.0877 H         1 <0>         0.0642
     45 H23        -4.6855   -0.0938    5.6747 H         1 <0>         0.0693
     46 H24        -3.2112   -0.8798    6.2545 H         1 <0>         0.0756
     47 H25        -1.2502    0.7239    7.0669 H         1 <0>         0.0775
     48 H26        -1.2796    2.3277    6.2883 H         1 <0>         0.0843
     49 H27        -4.4431    1.3611    3.8936 H         1 <0>         0.0564
     50 H28        -4.1452    3.0809    3.5952 H         1 <0>         0.0840
     51 H29        -1.7325    2.6076    3.5112 H         1 <0>         0.0702
     52 H30        -2.6814    1.8097    2.2351 H         1 <0>         0.0997
@<TRIPOS>BOND
     1    1    2 1
     2    1   28 1
     3    1   29 1
     4    1   30 1
     5    2    9 1
     6    2   13 1
     7    2    3 1
     8    3    4 1
     9    3   31 1
    10    3   32 1
    11    4    5 1
    12    4   33 1
    13    4   34 1
    14    5    6 1
    15    5   19 1
    16    5    7 1
    17    7    8 1
    18    7    9 1
    19    7   16 1
    20    9   10 1
    21    9   11 1
    22   11   12 1
    23   11   35 1
    24   11   36 1
    25   12   13 1
    26   12   37 1
    27   12   38 1
    28   13   14 1
    29   13   15 1
    30   15   39 1
    31   16   17 1
    32   16   40 1
    33   16   41 1
    34   17   18 2
    35   17   42 1
    36   18   24 1
    37   18   19 1
    38   19   27 1
    39   19   20 1
    40   20   21 1
    41   20   43 1
    42   20   44 1
    43   21   22 1
    44   21   45 1
    45   21   46 1
    46   22   23 1
    47   22   24 1
    48   22   25 1
    49   24   47 1
    50   24   48 1
    51   25   26 1
    52   26   27 1
    53   26   49 1
    54   26   50 1
    55   27   51 1
    56   27   52 1
@<TRIPOS>MOLECULE
CHEMBL269372
   47    49     0     0     0
SMALL
USER_CHARGES

@<TRIPOS>ATOM
      1 C1          0.0037    1.5359    0.0321 C.3       1 <0>        -0.1489
      2 C2          0.0090    0.0062    0.0024 C.3       1 <0>         0.1219
      3 C3          0.8410   -0.5018   -1.1584 C.2       1 <0>         0.5282
      4 O1          0.6482   -0.3048   -2.3389 O.2       1 <0>        -0.4364
      5 N1          1.8399   -1.2175   -0.6050 N.am      1 <0>        -0.5226
      6 C4          1.7556   -1.2320    0.7302 C.2       1 <0>         0.7037
      7 O2          2.5438   -1.8125    1.4505 O.2       1 <0>        -0.5208
      8 N2          0.7007   -0.5328    1.1861 N.am      1 <0>        -0.6082
      9 C5          0.3153   -0.3437    2.5868 C.3       1 <0>         0.1545
     10 C6         -0.6347   -1.4658    3.0103 C.3       1 <0>        -0.1054
     11 C7         -1.0313   -1.2713    4.4511 C.ar      1 <0>        -0.0671
     12 C8         -0.2741   -1.8388    5.4589 C.ar      1 <0>        -0.1070
     13 C9         -0.6375   -1.6606    6.7805 C.ar      1 <0>        -0.0818
     14 C10        -1.7587   -0.9144    7.0946 C.ar      1 <0>        -0.0996
     15 C11        -2.5160   -0.3468    6.0862 C.ar      1 <0>        -0.0829
     16 C12        -2.1489   -0.5207    4.7650 C.ar      1 <0>        -0.1101
     17 I1         -2.3104   -0.6446    9.0976 I         1 <0>        -0.0411
     18 C13         2.8408   -1.8656   -1.3363 C.ar      1 <0>         0.1636
     19 C14         3.8981   -2.4782   -0.6727 C.ar      1 <0>        -0.1047
     20 C15         4.8854   -3.1173   -1.3891 C.ar      1 <0>        -0.0467
     21 C16         4.8234   -3.1500   -2.7850 C.ar      1 <0>         0.0178
     22 C17         3.7591   -2.5336   -3.4482 C.ar      1 <0>        -0.1206
     23 C18         2.7729   -1.9005   -2.7244 C.ar      1 <0>        -0.0952
     24 C19         3.6878   -2.5656   -4.9532 C.3       1 <0>         0.5067
     25 F1          2.5413   -1.8872   -5.3803 F         1 <0>        -0.1660
     26 F2          4.8226   -1.9455   -5.4871 F         1 <0>        -0.1685
     27 F3          3.6334   -3.8938   -5.3894 F         1 <0>        -0.1687
     28 C20         5.8483   -3.8131   -3.5337 C.1       1 <0>         0.2303
     29 N3          6.6614   -4.3392   -4.1276 N.1       1 <0>        -0.3713
     30 C21        -1.4202   -0.5340   -0.0783 C.3       1 <0>        -0.1502
     31 H1          1.0301    1.9027    0.0389 H         1 <0>         0.0699
     32 H2         -0.5117    1.9146   -0.8505 H         1 <0>         0.0901
     33 H3         -0.5110    1.8801    0.9291 H         1 <0>         0.0850
     34 H4          1.2059   -0.3653    3.2149 H         1 <0>         0.0981
     35 H5         -0.1854    0.6180    2.6992 H         1 <0>         0.0952
     36 H6         -1.5254   -1.4442    2.3822 H         1 <0>         0.0841
     37 H7         -0.1341   -2.4275    2.8979 H         1 <0>         0.0846
     38 H8          0.6014   -2.4217    5.2135 H         1 <0>         0.1332
     39 H9         -0.0461   -2.1042    7.5678 H         1 <0>         0.1307
     40 H10        -3.3917    0.2359    6.3312 H         1 <0>         0.1305
     41 H11        -2.7375   -0.0735    3.9777 H         1 <0>         0.1314
     42 H12         3.9453   -2.4525    0.4060 H         1 <0>         0.1834
     43 H13         5.7067   -3.5922   -0.8730 H         1 <0>         0.1577
     44 H14         1.9478   -1.4274   -3.2360 H         1 <0>         0.1772
     45 H15        -1.9018   -0.1542   -0.9793 H         1 <0>         0.0897
     46 H16        -1.3956   -1.6232   -0.1109 H         1 <0>         0.0704
     47 H17        -1.9813   -0.2094    0.7980 H         1 <0>         0.0858
@<TRIPOS>BOND
     1    1    2 1
     2    1   31 1
     3    1   32 1
     4    1   33 1
     5    2    8 1
     6    2    3 1
     7    2   30 1
     8    3    4 2
     9    3    5 am
    10    5    6 am
    11    5   18 1
    12    6    7 2
    13    6    8 am
    14    8    9 1
    15    9   10 1
    16    9   34 1
    17    9   35 1
    18   10   11 1
    19   10   36 1
    20   10   37 1
    21   11   16 ar
    22   11   12 ar
    23   12   13 ar
    24   12   38 1
    25   13   14 ar
    26   13   39 1
    27   14   15 ar
    28   14   17 1
    29   15   16 ar
    30   15   40 1
    31   16   41 1
    32   18   23 ar
    33   18   19 ar
    34   19   20 ar
    35   19   42 1
    36   20   21 ar
    37   20   43 1
    38   21   22 ar
    39   21   28 1
    40   22   23 ar
    41   22   24 1
    42   23   44 1
    43   24   25 1
    44   24   26 1
    45   24   27 1
    46   28   29 3
    47   30   45 1
    48   30   46 1
    49   30   47 1
@<TRIPOS>MOLECULE
CHEMBL365650
   45    49     0     0     0
SMALL
USER_CHARGES

@<TRIPOS>ATOM
      1 C1         -0.0149    1.3818    0.0386 C.ar      1 <0>        -0.0922
      2 C2          0.1374    0.2129    0.7630 C.ar      1 <0>        -0.1253
      3 C3          1.3398   -0.4632    0.7426 C.ar      1 <0>        -0.0950
      4 C4          2.4039    0.0344   -0.0111 C.ar      1 <0>        -0.1350
      5 C5          2.2437    1.2141   -0.7397 C.ar      1 <0>        -0.0629
      6 C6          1.0361    1.8805   -0.7106 C.ar      1 <0>        -0.1234
      7 C7          3.6955   -0.6847   -0.0372 C.2       1 <0>         0.5780
      8 O1          4.7349   -0.0636   -0.1438 O.2       1 <0>        -0.5085
      9 N1          3.7204   -2.0289    0.0571 N.am      1 <0>        -0.6216
     10 C8          2.5413   -2.9236    0.0714 C.3       1 <0>         0.0748
     11 C9          3.1747   -4.3629    0.0060 C.3       1 <0>         0.1833
     12 H1          2.5247   -5.2082    0.2319 H         1 <0>         0.1537
     13 C10         4.3730   -4.1012    0.9888 C.3       1 <0>        -0.1413
     14 C11         4.9368   -2.8767    0.1587 C.3       1 <0>         0.1484
     15 H2          5.8255   -2.3843    0.5535 H         1 <0>         0.1538
     16 C12         5.1029   -3.6427   -1.1703 C.3       1 <0>         0.0351
     17 H3          5.9230   -4.3592   -1.1254 H         1 <0>         0.1514
     18 N2          3.7661   -4.3187   -1.3514 N.am      1 <0>        -0.6539
     19 C13         3.6683   -4.4677   -2.6740 C.2       1 <0>         0.7570
     20 O2          3.1184   -5.3927   -3.2389 O.2       1 <0>        -0.4949
     21 N3          4.2775   -3.4267   -3.2867 N.am      1 <0>        -0.5592
     22 C14         5.1787   -2.7819   -2.3988 C.2       1 <0>         0.5375
     23 O3          5.8388   -1.7796   -2.5703 O.2       1 <0>        -0.4055
     24 C15         4.0614   -3.0492   -4.6196 C.ar      1 <0>         0.2070
     25 C16         4.7442   -1.9656   -5.1550 C.ar      1 <0>        -0.1472
     26 C17         4.5292   -1.5960   -6.4684 C.ar      1 <0>        -0.0240
     27 C18         3.6349   -2.3043   -7.2498 C.ar      1 <0>        -0.0674
     28 C19         2.9533   -3.3841   -6.7193 C.ar      1 <0>        -0.0252
     29 C20         3.1684   -3.7619   -5.4082 C.ar      1 <0>        -0.1444
     30 N4          3.4064   -1.9054   -8.6568 N.pl3     1 <0>         0.0357
     31 O4          4.0014   -0.9612   -9.1218 O.2       1 <0>        -0.1574
     32 O5          2.6247   -2.5238   -9.3411 O.3       1 <0>        -0.1569
     33 H4         -0.9596    1.9049    0.0544 H         1 <0>         0.1296
     34 H5         -0.6867   -0.1708    1.3461 H         1 <0>         0.1310
     35 H6          1.4575   -1.3753    1.3088 H         1 <0>         0.1335
     36 H7          3.0633    1.6046   -1.3246 H         1 <0>         0.1319
     37 H8          0.9107    2.7934   -1.2738 H         1 <0>         0.1321
     38 H9          1.9730   -2.7954    0.9927 H         1 <0>         0.0958
     39 H10         1.9105   -2.7416   -0.7987 H         1 <0>         0.0824
     40 H11         4.0369   -3.8113    1.9843 H         1 <0>         0.1182
     41 H12         5.0727   -4.9364    1.0209 H         1 <0>         0.1086
     42 H13         5.4426   -1.4118   -4.5451 H         1 <0>         0.1655
     43 H14         5.0599   -0.7528   -6.8854 H         1 <0>         0.1625
     44 H15         2.2554   -3.9354   -7.3320 H         1 <0>         0.1624
     45 H16         2.6391   -4.6081   -4.9957 H         1 <0>         0.1722
@<TRIPOS>BOND
     1    1    6 ar
     2    1    2 ar
     3    1   33 1
     4    2    3 ar
     5    2   34 1
     6    3    4 ar
     7    3   35 1
     8    4    5 ar
     9    4    7 1
    10    5    6 ar
    11    5   36 1
    12    6   37 1
    13    7    8 2
    14    7    9 am
    15    9   14 1
    16    9   10 1
    17   10   11 1
    18   10   38 1
    19   10   39 1
    20   11   12 1
    21   11   18 1
    22   11   13 1
    23   13   14 1
    24   13   40 1
    25   13   41 1
    26   14   15 1
    27   14   16 1
    28   16   17 1
    29   16   22 1
    30   16   18 1
    31   18   19 am
    32   19   20 2
    33   19   21 am
    34   21   22 am
    35   21   24 1
    36   22   23 2
    37   24   29 ar
    38   24   25 ar
    39   25   26 ar
    40   25   42 1
    41   26   27 ar
    42   26   43 1
    43   27   28 ar
    44   27   30 1
    45   28   29 ar
    46   28   44 1
    47   29   45 1
    48   30   31 2
    49   30   32 1
@<TRIPOS>MOLECULE
CHEMBL166444
   45    48     0     0     0
SMALL
USER_CHARGES

@<TRIPOS>ATOM
      1 C1         -0.0187    1.5258    0.0104 C.3       1 <0>        -0.1763
      2 C2          0.0021   -0.0041    0.0020 C.3       1 <0>         0.1406
      3 C3         -1.4392   -0.5616    0.1185 C.3       1 <0>        -0.1505
      4 C4         -1.5070   -1.3199    1.4726 C.3       1 <0>        -0.1142
      5 C5         -0.3937   -0.6587    2.2918 C.3       1 <0>        -0.0794
      6 H1         -0.7072    0.3226    2.6481 H         1 <0>         0.0839
      7 C6          0.7352   -0.5290    1.2293 C.3       1 <0>        -0.0325
      8 C7          1.8054    0.3292    1.8114 C.2       1 <0>        -0.0867
      9 C8          2.0847    0.1869    3.1190 C.2       1 <0>        -0.1540
     10 C9          1.3824   -0.7230    3.9516 C.2       1 <0>        -0.0191
     11 C10         1.7983   -0.9095    5.2334 C.2       1 <0>        -0.1275
     12 C11         3.0940   -0.2653    5.6654 C.3       1 <0>        -0.0796
     13 C12         3.0159    0.1514    7.1315 C.3       1 <0>        -0.1680
     14 C13         2.4591   -0.9799    7.9550 C.2       1 <0>         0.3858
     15 O1          2.8966   -1.1908    9.0691 O.2       1 <0>        -0.4722
     16 C14         1.4406   -1.7887    7.4414 C.2       1 <0>        -0.2588
     17 C15         1.0747   -1.7092    6.1296 C.2       1 <0>         0.0329
     18 C16        -0.1407   -2.4773    5.6684 C.3       1 <0>        -0.0991
     19 C17        -0.8254   -1.6938    4.5421 C.3       1 <0>        -0.1099
     20 C18         0.1788   -1.4835    3.4280 C.3       1 <0>        -0.0522
     21 H2          0.5025   -2.4529    3.0491 H         1 <0>         0.0987
     22 C19         1.3149   -1.9123    0.9272 C.3       1 <0>        -0.1298
     23 O2          0.6261   -0.4838   -1.1907 O.3       1 <0>        -0.5533
     24 H3          1.0039    1.9031    0.0027 H         1 <0>         0.0658
     25 H4         -0.5459    1.8868   -0.8726 H         1 <0>         0.0599
     26 H5         -0.5289    1.8773    0.9072 H         1 <0>         0.0675
     27 H6         -2.1588    0.2570    0.1116 H         1 <0>         0.0720
     28 H7         -1.6430   -1.2466   -0.7046 H         1 <0>         0.0756
     29 H8         -2.4761   -1.1724    1.9492 H         1 <0>         0.0716
     30 H9         -1.3032   -2.3813    1.3310 H         1 <0>         0.0742
     31 H10         2.3401    1.0427    1.2021 H         1 <0>         0.1251
     32 H11         2.8722    0.7864    3.5512 H         1 <0>         0.1257
     33 H12         3.9109   -0.9752    5.5351 H         1 <0>         0.0808
     34 H13         3.2824    0.6144    5.0499 H         1 <0>         0.0892
     35 H14         4.0139    0.4035    7.4901 H         1 <0>         0.0943
     36 H15         2.3672    1.0222    7.2265 H         1 <0>         0.0983
     37 H16         0.9358   -2.4866    8.0930 H         1 <0>         0.1340
     38 H17         0.1647   -3.4562    5.2988 H         1 <0>         0.0890
     39 H18        -0.8330   -2.5994    6.5014 H         1 <0>         0.0870
     40 H19        -1.6794   -2.2584    4.1679 H         1 <0>         0.0800
     41 H20        -1.1593   -0.7264    4.9174 H         1 <0>         0.0709
     42 H21         2.0310   -1.8354    0.1092 H         1 <0>         0.0679
     43 H22         1.8170   -2.2975    1.8147 H         1 <0>         0.0551
     44 H23         0.5095   -2.5895    0.6427 H         1 <0>         0.0615
     45 H24         0.1898   -0.1982   -2.0050 H         1 <0>         0.3760
@<TRIPOS>BOND
     1    1    2 1
     2    1   24 1
     3    1   25 1
     4    1   26 1
     5    2    7 1
     6    2    3 1
     7    2   23 1
     8    3    4 1
     9    3   27 1
    10    3   28 1
    11    4    5 1
    12    4   29 1
    13    4   30 1
    14    5    6 1
    15    5   20 1
    16    5    7 1
    17    7    8 1
    18    7   22 1
    19    8    9 2
    20    8   31 1
    21    9   10 1
    22    9   32 1
    23   10   20 1
    24   10   11 2
    25   11   17 1
    26   11   12 1
    27   12   13 1
    28   12   33 1
    29   12   34 1
    30   13   14 1
    31   13   35 1
    32   13   36 1
    33   14   15 2
    34   14   16 1
    35   16   17 2
    36   16   37 1
    37   17   18 1
    38   18   19 1
    39   18   38 1
    40   18   39 1
    41   19   20 1
    42   19   40 1
    43   19   41 1
    44   20   21 1
    45   22   42 1
    46   22   43 1
    47   22   44 1
    48   23   45 1
@<TRIPOS>MOLECULE
CHEMBL132889
   43    45     0     0     0
SMALL
USER_CHARGES

@<TRIPOS>ATOM
      1 C1         -2.5102    3.6718    1.3246 C.3       1 <0>        -0.0981
      2 C2         -1.5145    2.8207    0.5794 C.2       1 <0>        -0.1319
      3 C3         -1.5634    2.7236   -0.7836 C.2       1 <0>        -0.0666
      4 C4         -0.6268    1.9285   -1.4284 C.2       1 <0>        -0.1372
      5 S1          0.3421    1.3078   -0.0636 S.3       1 <0>         0.1452
      6 C5         -0.5290    2.1268    1.2620 C.2       1 <0>        -0.0702
      7 C6         -0.2675    2.0756    2.7146 C.ar      1 <0>        -0.0717
      8 C7         -0.2420    3.2538    3.4650 C.ar      1 <0>        -0.0392
      9 C8          0.0071    3.1976    4.8165 C.ar      1 <0>        -0.1825
     10 C9          0.2320    1.9713    5.4440 C.ar      1 <0>         0.2329
     11 C10         0.1980    0.7990    4.7036 C.ar      1 <0>        -0.1400
     12 C11        -0.0507    0.8503    3.3446 C.ar      1 <0>        -0.0401
     13 C12         0.4055   -0.5525    5.3413 C.3       1 <0>        -0.0584
     14 C13         0.9849   -0.3722    6.7255 C.2       1 <0>         0.3687
     15 O1          1.8824   -1.0720    7.1295 O.2       1 <0>        -0.4265
     16 C14         0.3892    0.7272    7.5850 C.3       1 <0>         0.1339
     17 N1          0.4952    1.9740    6.8158 N.pl3     1 <0>        -0.7310
     18 C15        -1.0798    0.4200    7.8825 C.3       1 <0>        -0.1631
     19 C16         1.1738    0.8514    8.8926 C.3       1 <0>        -0.1498
     20 C17        -0.9362   -1.2810    5.4408 C.3       1 <0>        -0.1453
     21 C18         1.3714   -1.3765    4.4875 C.3       1 <0>        -0.1362
     22 C19        -0.4761    1.6718   -2.8291 C.1       1 <0>         0.2926
     23 N2         -0.3565    1.4681   -3.9403 N.1       1 <0>        -0.3964
     24 H1         -2.0841    4.6595    1.5007 H         1 <0>         0.0714
     25 H2         -3.4201    3.7691    0.7324 H         1 <0>         0.0681
     26 H3         -2.7466    3.2025    2.2795 H         1 <0>         0.0721
     27 H4         -2.3163    3.2548   -1.3470 H         1 <0>         0.1461
     28 H5         -0.4168    4.2056    2.9854 H         1 <0>         0.1312
     29 H6          0.0292    4.1086    5.3961 H         1 <0>         0.1305
     30 H7         -0.0730   -0.0623    2.7675 H         1 <0>         0.1295
     31 H8          0.7475    2.7986    7.2601 H         1 <0>         0.4090
     32 H9         -1.1740   -0.6120    8.2203 H         1 <0>         0.0708
     33 H10        -1.4410    1.0917    8.6613 H         1 <0>         0.0736
     34 H11        -1.6711    0.5616    6.9778 H         1 <0>         0.0768
     35 H12         2.2134    1.0927    8.6709 H         1 <0>         0.0684
     36 H13         0.7394    1.6429    9.5032 H         1 <0>         0.0721
     37 H14         1.1277   -0.0928    9.4351 H         1 <0>         0.0807
     38 H15        -1.2840   -1.5401    4.4408 H         1 <0>         0.0736
     39 H16        -0.8133   -2.1900    6.0296 H         1 <0>         0.0643
     40 H17        -1.6672   -0.6318    5.9228 H         1 <0>         0.0743
     41 H18         2.3273   -0.8575    4.4168 H         1 <0>         0.0612
     42 H19         1.5213   -2.3529    4.9483 H         1 <0>         0.0685
     43 H20         0.9537   -1.5062    3.4891 H         1 <0>         0.0685
@<TRIPOS>BOND
     1    1    2 1
     2    1   24 1
     3    1   25 1
     4    1   26 1
     5    2    6 2
     6    2    3 1
     7    3    4 2
     8    3   27 1
     9    4    5 1
    10    4   22 1
    11    5    6 1
    12    6    7 1
    13    7   12 ar
    14    7    8 ar
    15    8    9 ar
    16    8   28 1
    17    9   10 ar
    18    9   29 1
    19   10   17 1
    20   10   11 ar
    21   11   12 ar
    22   11   13 1
    23   12   30 1
    24   13   14 1
    25   13   20 1
    26   13   21 1
    27   14   15 2
    28   14   16 1
    29   16   17 1
    30   16   18 1
    31   16   19 1
    32   17   31 1
    33   18   32 1
    34   18   33 1
    35   18   34 1
    36   19   35 1
    37   19   36 1
    38   19   37 1
    39   20   38 1
    40   20   39 1
    41   20   40 1
    42   21   41 1
    43   21   42 1
    44   21   43 1
    45   22   23 3
@<TRIPOS>MOLECULE
CHEMBL89437
   42    45     0     0     0
SMALL
USER_CHARGES

@<TRIPOS>ATOM
      1 C1          2.3781    0.7523    1.4527 C.ar      1 <0>        -0.1259
      2 C2          1.5136    1.7778    1.1116 C.ar      1 <0>        -0.0700
      3 C3          0.5172    1.5678    0.1767 C.ar      1 <0>        -0.1508
      4 C4          0.3793    0.3298   -0.4238 C.ar      1 <0>         0.1286
      5 C5          1.2495   -0.7077   -0.0832 C.ar      1 <0>        -0.0788
      6 C6          2.2514   -0.4875    0.8611 C.ar      1 <0>        -0.0538
      7 C7          1.1084   -2.0373   -0.7222 C.2       1 <0>         0.1911
      8 N1          1.9704   -2.6062   -1.5169 N.2       1 <0>        -0.2527
      9 O1          1.5116   -3.8703   -1.9402 O.3       1 <0>        -0.1566
     10 C8          0.3070   -4.1301   -1.3996 C.2       1 <0>         0.4862
     11 O2         -0.3647   -5.1324   -1.5604 O.2       1 <0>        -0.4344
     12 C9         -0.0328   -2.9640   -0.5700 C.2       1 <0>        -0.3046
     13 C10        -1.1737   -2.7745    0.1857 C.2       1 <0>         0.1447
     14 C11        -2.1250   -3.8708    0.3608 C.ar      1 <0>        -0.1988
     15 C12        -1.6622   -5.1868    0.5179 C.ar      1 <0>         0.0197
     16 C13        -2.5545   -6.2063    0.6814 C.ar      1 <0>        -0.2097
     17 C14        -3.9232   -5.9429    0.6926 C.ar      1 <0>         0.2782
     18 C15        -4.3883   -4.6381    0.5366 C.ar      1 <0>        -0.2151
     19 C16        -3.5044   -3.6104    0.3782 C.ar      1 <0>        -0.0149
     20 N2         -4.8266   -6.9839    0.8593 N.pl3     1 <0>        -0.6228
     21 C17        -4.4776   -8.4006    1.0399 C.3       1 <0>         0.1059
     22 C18        -5.8003   -9.1868    1.1580 C.3       1 <0>        -0.1327
     23 C19        -6.8260   -8.2466    0.4715 C.3       1 <0>        -0.1347
     24 C20        -6.2945   -6.8508    0.8909 C.3       1 <0>         0.1054
     25 F1         -0.5948    0.1246   -1.3372 F         1 <0>        -0.1283
     26 H1          3.1570    0.9244    2.1809 H         1 <0>         0.1407
     27 H2          1.6177    2.7462    1.5782 H         1 <0>         0.1413
     28 H3         -0.1549    2.3718   -0.0848 H         1 <0>         0.1459
     29 H4          2.9275   -1.2861    1.1287 H         1 <0>         0.1407
     30 H5         -1.3628   -1.8165    0.6472 H         1 <0>         0.1452
     31 H6         -0.6019   -5.3921    0.5090 H         1 <0>         0.1244
     32 H7         -2.1995   -7.2192    0.8019 H         1 <0>         0.1251
     33 H8         -5.4498   -4.4395    0.5457 H         1 <0>         0.1267
     34 H9         -3.8656   -2.5993    0.2619 H         1 <0>         0.1298
     35 H10        -3.9111   -8.7555    0.1789 H         1 <0>         0.0674
     36 H11        -3.8901   -8.5246    1.9496 H         1 <0>         0.0668
     37 H12        -5.7329  -10.1368    0.6278 H         1 <0>         0.0848
     38 H13        -6.0625   -9.3455    2.2040 H         1 <0>         0.0781
     39 H14        -6.8032   -8.3678   -0.6115 H         1 <0>         0.0780
     40 H15        -7.8304   -8.4134    0.8606 H         1 <0>         0.0864
     41 H16        -6.6312   -6.6008    1.8970 H         1 <0>         0.0680
     42 H17        -6.6220   -6.0916    0.1807 H         1 <0>         0.0755
@<TRIPOS>BOND
     1    1    6 ar
     2    1    2 ar
     3    1   26 1
     4    2    3 ar
     5    2   27 1
     6    3    4 ar
     7    3   28 1
     8    4    5 ar
     9    4   25 1
    10    5    6 ar
    11    5    7 1
    12    6   29 1
    13    7   12 1
    14    7    8 2
    15    8    9 1
    16    9   10 1
    17   10   11 2
    18   10   12 1
    19   12   13 2
    20   13   14 1
    21   13   30 1
    22   14   19 ar
    23   14   15 ar
    24   15   16 ar
    25   15   31 1
    26   16   17 ar
    27   16   32 1
    28   17   18 ar
    29   17   20 1
    30   18   19 ar
    31   18   33 1
    32   19   34 1
    33   20   24 1
    34   20   21 1
    35   21   22 1
    36   21   35 1
    37   21   36 1
    38   22   23 1
    39   22   37 1
    40   22   38 1
    41   23   24 1
    42   23   39 1
    43   23   40 1
    44   24   41 1
    45   24   42 1
@<TRIPOS>MOLECULE
CHEMBL422045
   51    54     0     0     0
SMALL
USER_CHARGES

@<TRIPOS>ATOM
      1 C1         -0.0187    1.5258    0.0104 C.3       1 <0>        -0.1332
      2 C2          0.0021   -0.0041    0.0020 C.3       1 <0>        -0.0573
      3 C3         -1.4161   -0.5361    0.0674 C.3       1 <0>        -0.1033
      4 C4         -2.0828    0.0906    1.3034 C.3       1 <0>        -0.1196
      5 C5         -1.3025   -0.2223    2.5757 C.3       1 <0>        -0.0675
      6 H1         -1.3347   -1.2973    2.7528 H         1 <0>         0.0677
      7 C6          0.1645    0.2178    2.4629 C.3       1 <0>        -0.0756
      8 H2          0.2192    1.2972    2.3211 H         1 <0>         0.0880
      9 C7          0.7519   -0.5258    1.2577 C.3       1 <0>        -0.0830
     10 H3          0.6157   -1.6021    1.3636 H         1 <0>         0.0761
     11 C8          2.2062   -0.1865    0.9129 C.3       1 <0>        -0.1129
     12 C9          2.3055   -0.5687   -0.5893 C.3       1 <0>        -0.1574
     13 C10         0.8643   -0.5016   -1.1533 C.3       1 <0>         0.1098
     14 H4          0.5363   -1.4916   -1.4703 H         1 <0>         0.0560
     15 O1          0.8030    0.4153   -2.2476 O.3       1 <0>        -0.5600
     16 C11         0.8988   -0.1776    3.7458 C.3       1 <0>        -0.1138
     17 C12         0.2544    0.5368    4.9342 C.3       1 <0>        -0.1166
     18 C13        -1.2166    0.1293    5.0511 C.3       1 <0>        -0.0646
     19 C14        -1.9420    0.4937    3.7676 C.3       1 <0>        -0.0520
     20 C15        -3.4079    0.0629    3.8714 C.3       1 <0>        -0.1081
     21 C16        -4.0910    0.8331    5.0051 C.3       1 <0>        -0.1749
     22 C17        -3.2949    0.6173    6.2736 C.2       1 <0>         0.3647
     23 O2         -3.8325    0.2424    7.2878 O.2       1 <0>        -0.4595
     24 C18        -1.8417    0.8866    6.2295 C.3       1 <0>        -0.1746
     25 C19        -1.8672    2.0069    3.5543 C.3       1 <0>        -0.1544
     26 H5          1.0039    1.9031    0.0027 H         1 <0>         0.0530
     27 H6         -0.5459    1.8868   -0.8726 H         1 <0>         0.0582
     28 H7         -0.5289    1.8773    0.9072 H         1 <0>         0.0613
     29 H8         -1.9610   -0.2510   -0.8325 H         1 <0>         0.0652
     30 H9         -1.4008   -1.6217    0.1646 H         1 <0>         0.0612
     31 H10        -2.1323    1.1715    1.1723 H         1 <0>         0.0717
     32 H11        -3.0949   -0.3023    1.4003 H         1 <0>         0.0643
     33 H12         2.3979    0.8772    1.0537 H         1 <0>         0.0702
     34 H13         2.8939   -0.7857    1.5096 H         1 <0>         0.0652
     35 H14         2.9460    0.1401   -1.1141 H         1 <0>         0.0719
     36 H15         2.7012   -1.5790   -0.6929 H         1 <0>         0.0661
     37 H16         1.3325    0.1511   -3.0123 H         1 <0>         0.3748
     38 H17         0.8290   -1.2561    3.8877 H         1 <0>         0.0615
     39 H18         1.9465    0.1136    3.6703 H         1 <0>         0.0648
     40 H19         0.7797    0.2635    5.8494 H         1 <0>         0.0636
     41 H20         0.3210    1.6150    4.7881 H         1 <0>         0.0683
     42 H21        -1.2848   -0.9438    5.2295 H         1 <0>         0.0759
     43 H22        -3.9160    0.2752    2.9308 H         1 <0>         0.0804
     44 H23        -3.4582   -1.0063    4.0773 H         1 <0>         0.0666
     45 H24        -4.1167    1.8958    4.7639 H         1 <0>         0.1001
     46 H25        -5.1068    0.4621    5.1413 H         1 <0>         0.0866
     47 H26        -1.3863    0.5518    7.1616 H         1 <0>         0.0883
     48 H27        -1.6775    1.9568    6.1043 H         1 <0>         0.1037
     49 H28        -2.4015    2.2720    2.6420 H         1 <0>         0.0611
     50 H29        -2.3227    2.5165    4.4034 H         1 <0>         0.0573
     51 H30        -0.8240    2.3101    3.4655 H         1 <0>         0.0647
@<TRIPOS>BOND
     1    1    2 1
     2    1   26 1
     3    1   27 1
     4    1   28 1
     5    2    9 1
     6    2   13 1
     7    2    3 1
     8    3    4 1
     9    3   29 1
    10    3   30 1
    11    4    5 1
    12    4   31 1
    13    4   32 1
    14    5    6 1
    15    5   19 1
    16    5    7 1
    17    7    8 1
    18    7    9 1
    19    7   16 1
    20    9   10 1
    21    9   11 1
    22   11   12 1
    23   11   33 1
    24   11   34 1
    25   12   13 1
    26   12   35 1
    27   12   36 1
    28   13   14 1
    29   13   15 1
    30   15   37 1
    31   16   17 1
    32   16   38 1
    33   16   39 1
    34   17   18 1
    35   17   40 1
    36   17   41 1
    37   18   24 1
    38   18   19 1
    39   18   42 1
    40   19   20 1
    41   19   25 1
    42   20   21 1
    43   20   43 1
    44   20   44 1
    45   21   22 1
    46   21   45 1
    47   21   46 1
    48   22   23 2
    49   22   24 1
    50   24   47 1
    51   24   48 1
    52   25   49 1
    53   25   50 1
    54   25   51 1
@<TRIPOS>MOLECULE
CHEMBL422045__1
   51    54     0     0     0
SMALL
USER_CHARGES

@<TRIPOS>ATOM
      1 C1         -0.0187    1.5258    0.0104 C.3       1 <0>        -0.1334
      2 C2          0.0021   -0.0041    0.0020 C.3       1 <0>        -0.0541
      3 C3         -1.4125   -0.5512    0.0562 C.3       1 <0>        -0.1029
      4 C4         -2.0873    0.0455    1.3025 C.3       1 <0>        -0.1196
      5 C5         -1.3100   -0.2903    2.5705 C.3       1 <0>        -0.0717
      6 H1         -1.3347   -1.3691    2.7248 H         1 <0>         0.0702
      7 C6          0.1548    0.1652    2.4696 C.3       1 <0>        -0.0751
      8 H2          0.1950    1.2469    2.3414 H         1 <0>         0.0873
      9 C7          0.7488   -0.5439    1.2521 C.3       1 <0>        -0.0838
     10 H3          0.6093   -1.6223    1.3276 H         1 <0>         0.0726
     11 C8          2.2106   -0.2333    0.9486 C.3       1 <0>        -0.1126
     12 C9          2.3254   -0.2721   -0.5958 C.3       1 <0>        -0.1569
     13 C10         0.8903   -0.5196   -1.1357 C.3       1 <0>         0.1078
     14 H4          0.7204   -1.5827   -1.3061 H         1 <0>         0.0599
     15 O1          0.6642    0.2282   -2.3322 O.3       1 <0>        -0.5590
     16 C11         0.8936   -0.2294    3.7485 C.3       1 <0>        -0.1178
     17 C12         0.2321    0.4480    4.9510 C.3       1 <0>        -0.1179
     18 C13        -1.2282   -0.0050    5.0484 C.3       1 <0>        -0.0678
     19 C14        -1.9484    0.3970    3.7770 C.3       1 <0>        -0.0529
     20 C15        -3.4242    0.0145    3.8754 C.3       1 <0>        -0.1058
     21 C16        -3.5547   -1.5090    3.9715 C.3       1 <0>        -0.1725
     22 C17        -2.7072   -1.9896    5.1288 C.2       1 <0>         0.3606
     23 O2         -3.1723   -2.7069    5.9817 O.2       1 <0>        -0.4592
     24 C18        -1.2656   -1.5306    5.1976 C.3       1 <0>        -0.1709
     25 C19        -1.8439    1.9140    3.6082 C.3       1 <0>        -0.1508
     26 H5          1.0039    1.9031    0.0027 H         1 <0>         0.0527
     27 H6         -0.5459    1.8868   -0.8726 H         1 <0>         0.0588
     28 H7         -0.5289    1.8773    0.9072 H         1 <0>         0.0618
     29 H8         -1.9591   -0.2549   -0.8391 H         1 <0>         0.0665
     30 H9         -1.3868   -1.6382    0.1331 H         1 <0>         0.0606
     31 H10        -2.1421    1.1287    1.1942 H         1 <0>         0.0713
     32 H11        -3.0976   -0.3548    1.3871 H         1 <0>         0.0641
     33 H12         2.4717    0.7569    1.3219 H         1 <0>         0.0674
     34 H13         2.8577   -0.9886    1.3945 H         1 <0>         0.0641
     35 H14         2.7057    0.6797   -0.9667 H         1 <0>         0.0733
     36 H15         2.9853   -1.0840   -0.9016 H         1 <0>         0.0633
     37 H16         1.2022   -0.0585   -3.0828 H         1 <0>         0.3756
     38 H17         0.8518   -1.3115    3.8729 H         1 <0>         0.0637
     39 H18         1.9340    0.0882    3.6796 H         1 <0>         0.0646
     40 H19         0.7611    0.1688    5.8622 H         1 <0>         0.0642
     41 H20         0.2697    1.5300    4.8251 H         1 <0>         0.0720
     42 H21        -1.6991    0.4597    5.9146 H         1 <0>         0.0772
     43 H22        -3.8595    0.4728    4.7634 H         1 <0>         0.0672
     44 H23        -3.9509    0.3688    2.9893 H         1 <0>         0.0792
     45 H24        -4.5970   -1.7780    4.1434 H         1 <0>         0.0871
     46 H25        -3.2051   -1.9664    3.0459 H         1 <0>         0.0998
     47 H26        -0.6976   -1.9912    4.3894 H         1 <0>         0.1044
     48 H27        -0.8358   -1.8147    6.1581 H         1 <0>         0.0869
     49 H28        -2.3642    2.2152    2.6990 H         1 <0>         0.0599
     50 H29        -2.2984    2.4074    4.4673 H         1 <0>         0.0548
     51 H30        -0.7945    2.2004    3.5380 H         1 <0>         0.0656
@<TRIPOS>BOND
     1    1    2 1
     2    1   26 1
     3    1   27 1
     4    1   28 1
     5    2    9 1
     6    2   13 1
     7    2    3 1
     8    3    4 1
     9    3   29 1
    10    3   30 1
    11    4    5 1
    12    4   31 1
    13    4   32 1
    14    5    6 1
    15    5   19 1
    16    5    7 1
    17    7    8 1
    18    7    9 1
    19    7   16 1
    20    9   10 1
    21    9   11 1
    22   11   12 1
    23   11   33 1
    24   11   34 1
    25   12   13 1
    26   12   35 1
    27   12   36 1
    28   13   14 1
    29   13   15 1
    30   15   37 1
    31   16   17 1
    32   16   38 1
    33   16   39 1
    34   17   18 1
    35   17   40 1
    36   17   41 1
    37   18   24 1
    38   18   19 1
    39   18   42 1
    40   19   20 1
    41   19   25 1
    42   20   21 1
    43   20   43 1
    44   20   44 1
    45   21   22 1
    46   21   45 1
    47   21   46 1
    48   22   23 2
    49   22   24 1
    50   24   47 1
    51   24   48 1
    52   25   49 1
    53   25   50 1
    54   25   51 1
@<TRIPOS>MOLECULE
CHEMBL369509
   37    41     0     0     0
SMALL
USER_CHARGES

@<TRIPOS>ATOM
      1 C1         -0.0168    1.3883    0.0097 C.ar      1 <0>        -0.1565
      2 C2          1.1585    2.0858    0.0022 C.ar      1 <0>        -0.0619
      3 C3          2.3614    1.3588   -0.0132 C.ar      1 <0>        -0.0715
      4 C4          3.6119    2.0100   -0.0211 C.ar      1 <0>         0.1128
      5 C5          4.7670    1.2595   -0.0357 C.ar      1 <0>        -0.0674
      6 C6          4.7111   -0.1309   -0.0428 C.ar      1 <0>        -0.1292
      7 C7          3.5145   -0.7887   -0.0354 C.ar      1 <0>         0.1583
      8 C8          2.3094   -0.0566   -0.0203 C.ar      1 <0>         0.1075
      9 N1          1.1265   -0.6783   -0.0128 N.ar      1 <0>        -0.4529
     10 C9          0.0021   -0.0041    0.0020 C.ar      1 <0>         0.1316
     11 O1          3.4850   -2.1476   -0.0430 O.3       1 <0>        -0.4778
     12 N2          3.6792    3.4089   -0.0145 N.am      1 <0>        -0.5294
     13 C10         3.7297    4.1252    1.1141 C.2       1 <0>         0.5318
     14 O2          3.7237    3.6655    2.2358 O.2       1 <0>        -0.4610
     15 C11         3.7960    5.5967    0.7743 C.3       1 <0>        -0.1200
     16 H1          2.9927    6.1799    1.2244 H         1 <0>         0.1407
     17 C12         3.7732    5.6052   -0.7829 C.3       1 <0>        -0.1193
     18 H2          2.9566    6.1924   -1.2030 H         1 <0>         0.1414
     19 C13         3.7039    4.1371   -1.1365 C.2       1 <0>         0.5319
     20 O3          3.6729    3.6890   -2.2625 O.2       1 <0>        -0.4591
     21 C14         5.1855    6.1493   -1.1654 C.3       1 <0>        -0.0579
     22 C15         6.0612    5.4891   -0.0388 C.3       1 <0>        -0.1336
     23 C16         5.2200    6.1203    1.1417 C.3       1 <0>        -0.0574
     24 C17         5.2173    7.5779    0.6651 C.2       1 <0>        -0.1565
     25 C18         5.1744    7.6011   -0.6717 C.2       1 <0>        -0.1578
     26 H3         -0.9588    1.9162    0.0260 H         1 <0>         0.1445
     27 H4          1.1629    3.1658    0.0076 H         1 <0>         0.1306
     28 H5          5.7263    1.7555   -0.0421 H         1 <0>         0.1372
     29 H6          5.6294   -0.6993   -0.0547 H         1 <0>         0.1492
     30 H7         -0.9340   -0.5427    0.0081 H         1 <0>         0.1672
     31 H8          3.4847   -2.5459    0.8381 H         1 <0>         0.3977
     32 H9          5.4988    5.9930   -2.1976 H         1 <0>         0.1205
     33 H10         5.9977    4.4010   -0.0445 H         1 <0>         0.0678
     34 H11         7.0928    5.8407   -0.0520 H         1 <0>         0.0959
     35 H12         5.5528    5.9354    2.1631 H         1 <0>         0.1234
     36 H13         5.2160    8.4505    1.3015 H         1 <0>         0.1374
     37 H14         5.1542    8.4809   -1.2977 H         1 <0>         0.1417
@<TRIPOS>BOND
     1    1   10 ar
     2    1    2 ar
     3    1   26 1
     4    2    3 ar
     5    2   27 1
     6    3    8 ar
     7    3    4 ar
     8    4    5 ar
     9    4   12 1
    10    5    6 ar
    11    5   28 1
    12    6    7 ar
    13    6   29 1
    14    7    8 ar
    15    7   11 1
    16    8    9 ar
    17    9   10 ar
    18   10   30 1
    19   11   31 1
    20   12   19 am
    21   12   13 am
    22   13   14 2
    23   13   15 1
    24   15   16 1
    25   15   23 1
    26   15   17 1
    27   17   18 1
    28   17   19 1
    29   17   21 1
    30   19   20 2
    31   21   25 1
    32   21   22 1
    33   21   32 1
    34   22   23 1
    35   22   33 1
    36   22   34 1
    37   23   24 1
    38   23   35 1
    39   24   25 2
    40   24   36 1
    41   25   37 1
@<TRIPOS>MOLECULE
CHEMBL369509__1
   37    41     0     0     0
SMALL
USER_CHARGES

@<TRIPOS>ATOM
      1 C1         -0.0168    1.3883    0.0097 C.ar      1 <0>        -0.1571
      2 C2          1.1585    2.0858    0.0022 C.ar      1 <0>        -0.0615
      3 C3          2.3614    1.3588   -0.0132 C.ar      1 <0>        -0.0722
      4 C4          3.6119    2.0100   -0.0211 C.ar      1 <0>         0.1165
      5 C5          4.7670    1.2595   -0.0357 C.ar      1 <0>        -0.0677
      6 C6          4.7111   -0.1309   -0.0428 C.ar      1 <0>        -0.1293
      7 C7          3.5145   -0.7887   -0.0354 C.ar      1 <0>         0.1570
      8 C8          2.3094   -0.0566   -0.0203 C.ar      1 <0>         0.1076
      9 N1          1.1265   -0.6783   -0.0128 N.ar      1 <0>        -0.4531
     10 C9          0.0021   -0.0041    0.0020 C.ar      1 <0>         0.1313
     11 O1          3.4850   -2.1476   -0.0430 O.3       1 <0>        -0.4779
     12 N2          3.6792    3.4089   -0.0145 N.am      1 <0>        -0.5269
     13 C10         3.7297    4.1253    1.1142 C.2       1 <0>         0.5350
     14 O2          3.7244    3.6654    2.2359 O.2       1 <0>        -0.4641
     15 C11         3.7951    5.5969    0.7746 C.3       1 <0>        -0.1236
     16 H1          2.9907    6.1794    1.2236 H         1 <0>         0.1421
     17 C12         3.7742    5.6050   -0.7827 C.3       1 <0>        -0.1223
     18 H2          2.9588    6.1931   -1.2039 H         1 <0>         0.1432
     19 C13         3.7039    4.1370   -1.1364 C.2       1 <0>         0.5351
     20 O3          3.6722    3.6890   -2.2624 O.2       1 <0>        -0.4622
     21 C14         5.1876    6.1475   -1.1635 C.3       1 <0>        -0.0543
     22 C15         5.4077    7.2016   -0.0179 C.3       1 <0>        -0.1110
     23 C16         5.2181    6.1219    1.1437 C.3       1 <0>        -0.0577
     24 C17         6.1629    5.0166    0.6563 C.2       1 <0>        -0.1751
     25 C18         6.1495    5.0483   -0.6966 C.2       1 <0>        -0.1737
     26 H3         -0.9588    1.9162    0.0260 H         1 <0>         0.1443
     27 H4          1.1629    3.1658    0.0076 H         1 <0>         0.1305
     28 H5          5.7263    1.7555   -0.0421 H         1 <0>         0.1362
     29 H6          5.6294   -0.6993   -0.0547 H         1 <0>         0.1484
     30 H7         -0.9340   -0.5427    0.0081 H         1 <0>         0.1671
     31 H8          3.4847   -2.5459    0.8381 H         1 <0>         0.3974
     32 H9          5.3108    6.4925   -2.1901 H         1 <0>         0.1228
     33 H10         6.4112    7.6270   -0.0292 H         1 <0>         0.0899
     34 H11         4.6354    7.9707   -0.0042 H         1 <0>         0.0886
     35 H12         5.3526    6.4703    2.1677 H         1 <0>         0.1225
     36 H13         6.7304    4.3476    1.2861 H         1 <0>         0.1399
     37 H14         6.7161    4.3903   -1.3388 H         1 <0>         0.1342
@<TRIPOS>BOND
     1    1   10 ar
     2    1    2 ar
     3    1   26 1
     4    2    3 ar
     5    2   27 1
     6    3    8 ar
     7    3    4 ar
     8    4    5 ar
     9    4   12 1
    10    5    6 ar
    11    5   28 1
    12    6    7 ar
    13    6   29 1
    14    7    8 ar
    15    7   11 1
    16    8    9 ar
    17    9   10 ar
    18   10   30 1
    19   11   31 1
    20   12   19 am
    21   12   13 am
    22   13   14 2
    23   13   15 1
    24   15   16 1
    25   15   23 1
    26   15   17 1
    27   17   18 1
    28   17   19 1
    29   17   21 1
    30   19   20 2
    31   21   25 1
    32   21   22 1
    33   21   32 1
    34   22   23 1
    35   22   33 1
    36   22   34 1
    37   23   24 1
    38   23   35 1
    39   24   25 2
    40   24   36 1
    41   25   37 1
@<TRIPOS>MOLECULE
CHEMBL390728
   36    38     0     0     0
SMALL
USER_CHARGES

@<TRIPOS>ATOM
      1 C1         -0.0187    1.5258    0.0104 C.3       1 <0>        -0.1552
      2 C2          0.0021   -0.0041    0.0020 C.3       1 <0>        -0.1202
      3 C3          0.7182   -0.4975   -1.2568 C.3       1 <0>        -0.0404
      4 C4         -0.0782   -0.0730   -2.4902 C.3       1 <0>        -0.1357
      5 C5          0.5288   -0.7469   -3.7277 C.3       1 <0>         0.1157
      6 N1          0.3702   -2.1987   -3.5716 N.pl3     1 <0>        -0.7358
      7 C6          0.6724   -2.7836   -2.3412 C.ar      1 <0>         0.2863
      8 C7          0.8452   -1.9981   -1.2018 C.ar      1 <0>        -0.1569
      9 C8          1.1373   -2.5858   -0.0022 C.ar      1 <0>        -0.0166
     10 C9          1.2670   -3.9769    0.0888 C.ar      1 <0>        -0.1692
     11 C10         1.5712   -4.6008    1.3260 C.2       1 <0>        -0.0581
     12 C11         1.6902   -5.9508    1.3747 C.2       1 <0>        -0.1715
     13 C12         1.5130   -6.7240    0.2090 C.2       1 <0>         0.5411
     14 O1          1.6232   -7.9366    0.2704 O.2       1 <0>        -0.5240
     15 N2          1.2234   -6.1434   -0.9706 N.am      1 <0>        -0.6242
     16 H1          1.1043   -6.6921   -1.7616 H         1 <0>         0.4202
     17 C13         1.0950   -4.7726   -1.0611 C.ar      1 <0>         0.2436
     18 C14         0.7976   -4.1644   -2.2717 C.ar      1 <0>        -0.2495
     19 C15         1.7604   -3.7733    2.5712 C.3       1 <0>         0.5053
     20 F1          2.0497   -4.6146    3.6508 F         1 <0>        -0.1682
     21 F2          2.8190   -2.8788    2.3803 F         1 <0>        -0.1677
     22 F3          0.5880   -3.0581    2.8384 F         1 <0>        -0.1677
     23 H2          1.0039    1.9031    0.0027 H         1 <0>         0.0558
     24 H3         -0.5459    1.8868   -0.8726 H         1 <0>         0.0569
     25 H4         -0.5289    1.8773    0.9072 H         1 <0>         0.0569
     26 H5          0.5293   -0.3651    0.8851 H         1 <0>         0.0668
     27 H6         -1.0205   -0.3814    0.0098 H         1 <0>         0.0667
     28 H7          1.7125   -0.0532   -1.3031 H         1 <0>         0.0840
     29 H8         -1.1173   -0.3827   -2.3785 H         1 <0>         0.0737
     30 H9         -0.0279    1.0100   -2.6026 H         1 <0>         0.0847
     31 H10         0.0058   -0.4127   -4.6238 H         1 <0>         0.0864
     32 H11         1.5871   -0.4971   -3.8023 H         1 <0>         0.0669
     33 H12         0.0597   -2.7426   -4.3123 H         1 <0>         0.4073
     34 H13         1.2689   -1.9745    0.8783 H         1 <0>         0.1374
     35 H14         1.9217   -6.4362    2.3113 H         1 <0>         0.1680
     36 H15         0.6631   -4.7646   -3.1594 H         1 <0>         0.1372
@<TRIPOS>BOND
     1    1    2 1
     2    1   23 1
     3    1   24 1
     4    1   25 1
     5    2    3 1
     6    2   26 1
     7    2   27 1
     8    3    8 1
     9    3    4 1
    10    3   28 1
    11    4    5 1
    12    4   29 1
    13    4   30 1
    14    5    6 1
    15    5   31 1
    16    5   32 1
    17    6    7 1
    18    6   33 1
    19    7   18 ar
    20    7    8 ar
    21    8    9 ar
    22    9   10 ar
    23    9   34 1
    24   10   17 ar
    25   10   11 1
    26   11   12 2
    27   11   19 1
    28   12   13 1
    29   12   35 1
    30   13   14 2
    31   13   15 am
    32   15   16 1
    33   15   17 1
    34   17   18 ar
    35   18   36 1
    36   19   20 1
    37   19   21 1
    38   19   22 1
@<TRIPOS>MOLECULE
CHEMBL390728__1
   36    38     0     0     0
SMALL
USER_CHARGES

@<TRIPOS>ATOM
      1 C1         -0.0187    1.5258    0.0104 C.3       1 <0>        -0.1552
      2 C2          0.0021   -0.0041    0.0020 C.3       1 <0>        -0.1202
      3 C3          0.7182   -0.4975   -1.2568 C.3       1 <0>        -0.0404
      4 C4          2.1788   -0.0494   -1.2155 C.3       1 <0>        -0.1357
      5 C5          2.9359   -0.7217   -2.3681 C.3       1 <0>         0.1158
      6 N1          2.9071   -2.1722   -2.1387 N.pl3     1 <0>        -0.7358
      7 C6          1.7067   -2.7728   -1.7570 C.ar      1 <0>         0.2863
      8 C7          0.6293   -2.0004   -1.3237 C.ar      1 <0>        -0.1569
      9 C8         -0.5393   -2.6033   -0.9492 C.ar      1 <0>        -0.0166
     10 C9         -0.6622   -3.9971   -1.0008 C.ar      1 <0>        -0.1693
     11 C10        -1.8688   -4.6368   -0.6169 C.2       1 <0>        -0.0581
     12 C11        -1.9505   -5.9889   -0.6816 C.2       1 <0>        -0.1715
     13 C12        -0.8485   -6.7487   -1.1248 C.2       1 <0>         0.5411
     14 O1         -0.9387   -7.9634   -1.1766 O.2       1 <0>        -0.5240
     15 N2          0.3016   -6.1530   -1.4919 N.am      1 <0>        -0.6242
     16 H1          1.0487   -6.6925   -1.7946 H         1 <0>         0.4202
     17 C13         0.4239   -4.7796   -1.4402 C.ar      1 <0>         0.2436
     18 C14         1.6045   -4.1560   -1.8159 C.ar      1 <0>        -0.2496
     19 C15        -3.0459   -3.8235   -0.1434 C.3       1 <0>         0.5053
     20 F1         -4.1064   -4.6790    0.1738 F         1 <0>        -0.1682
     21 F2         -2.6809   -3.0923    0.9921 F         1 <0>        -0.1677
     22 F3         -3.4430   -2.9442   -1.1565 F         1 <0>        -0.1677
     23 H2          1.0039    1.9031    0.0027 H         1 <0>         0.0569
     24 H3         -0.5459    1.8868   -0.8726 H         1 <0>         0.0558
     25 H4         -0.5289    1.8773    0.9072 H         1 <0>         0.0569
     26 H5          0.5293   -0.3651    0.8851 H         1 <0>         0.0667
     27 H6         -1.0205   -0.3814    0.0098 H         1 <0>         0.0668
     28 H7          0.2377   -0.0686   -2.1361 H         1 <0>         0.0840
     29 H8          2.2319    1.0336   -1.3262 H         1 <0>         0.0847
     30 H9          2.6243   -0.3435   -0.2652 H         1 <0>         0.0737
     31 H10         2.4495   -0.4881   -3.3152 H         1 <0>         0.0668
     32 H11         3.9679   -0.3713   -2.3860 H         1 <0>         0.0864
     33 H12         3.7101   -2.7046   -2.2511 H         1 <0>         0.4073
     34 H13        -1.3708   -2.0021   -0.6121 H         1 <0>         0.1374
     35 H14        -2.8643   -6.4863   -0.3919 H         1 <0>         0.1680
     36 H15         2.4434   -4.7460   -2.1544 H         1 <0>         0.1372
@<TRIPOS>BOND
     1    1    2 1
     2    1   23 1
     3    1   24 1
     4    1   25 1
     5    2    3 1
     6    2   26 1
     7    2   27 1
     8    3    8 1
     9    3    4 1
    10    3   28 1
    11    4    5 1
    12    4   29 1
    13    4   30 1
    14    5    6 1
    15    5   31 1
    16    5   32 1
    17    6    7 1
    18    6   33 1
    19    7   18 ar
    20    7    8 ar
    21    8    9 ar
    22    9   10 ar
    23    9   34 1
    24   10   17 ar
    25   10   11 1
    26   11   12 2
    27   11   19 1
    28   12   13 1
    29   12   35 1
    30   13   14 2
    31   13   15 am
    32   15   16 1
    33   15   17 1
    34   17   18 ar
    35   18   36 1
    36   19   20 1
    37   19   21 1
    38   19   22 1
@<TRIPOS>MOLECULE
CHEMBL457036
   60    63     0     0     0
SMALL
USER_CHARGES

@<TRIPOS>ATOM
      1 C1         -0.0187    1.5258    0.0104 C.3       1 <0>        -0.1622
      2 C2          0.0021   -0.0041    0.0020 C.3       1 <0>        -0.1204
      3 C3          0.7182   -0.4975   -1.2568 C.3       1 <0>        -0.0066
      4 C4          2.1560    0.0171   -1.2406 C.3       1 <0>        -0.1058
      5 C5          2.8430   -0.4745    0.0377 C.3       1 <0>        -0.1419
      6 C6          2.8304   -2.0025    0.0839 C.3       1 <0>         0.2540
      7 C7          1.3876   -2.5161    0.0380 C.3       1 <0>        -0.0972
      8 C8          0.7308   -2.0253   -1.2508 C.3       1 <0>        -0.0741
      9 H1          1.2981   -2.3872   -2.1083 H         1 <0>         0.0767
     10 C9         -0.7137   -2.5161   -1.3521 C.3       1 <0>        -0.1166
     11 C10        -1.2263   -2.2031   -2.7574 C.3       1 <0>        -0.0810
     12 C11        -0.9321   -0.7765   -3.1403 C.ar      1 <0>        -0.0321
     13 C12        -0.0156    0.0122   -2.4645 C.ar      1 <0>        -0.0954
     14 C13         0.2221    1.3165   -2.8750 C.ar      1 <0>        -0.0726
     15 C14        -0.4299    1.8374   -3.9728 C.ar      1 <0>        -0.2120
     16 C15        -1.3327    1.0500   -4.6723 C.ar      1 <0>         0.1292
     17 C16        -1.6058   -0.2520   -4.2348 C.ar      1 <0>        -0.1538
     18 O1         -1.9840    1.5545   -5.7531 O.3       1 <0>        -0.3132
     19 C17        -1.6910    2.9055   -6.1148 C.3       1 <0>         0.1105
     20 C18        -2.5006    3.2880   -7.3269 C.ar      1 <0>        -0.1470
     21 C19        -3.3693    2.3761   -7.9073 C.ar      1 <0>        -0.0498
     22 C20        -4.0937    2.7717   -9.0211 C.ar      1 <0>        -0.1784
     23 C21        -3.9273    4.0528   -9.5126 C.ar      1 <0>         0.1050
     24 N1         -3.0916    4.8935   -8.9351 N.ar      1 <0>        -0.4818
     25 C22        -2.3910    4.5536   -7.8707 C.ar      1 <0>         0.1367
     26 C23        -1.4551    5.5549   -7.2441 C.3       1 <0>        -0.1117
     27 C24         3.5745   -2.5324   -1.0703 C.1       1 <0>        -0.2144
     28 C25         4.1680   -2.9549   -1.9909 C.1       1 <0>        -0.1646
     29 C26         4.9122   -3.4847   -3.1452 C.3       1 <0>        -0.0459
     30 O2          3.4534   -2.4457    1.2912 O.3       1 <0>        -0.5498
     31 H2          1.0039    1.9031    0.0027 H         1 <0>         0.0556
     32 H3         -0.5459    1.8868   -0.8726 H         1 <0>         0.0619
     33 H4         -0.5289    1.8773    0.9072 H         1 <0>         0.0532
     34 H5          0.5293   -0.3651    0.8851 H         1 <0>         0.0744
     35 H6         -1.0205   -0.3814    0.0098 H         1 <0>         0.0677
     36 H7          2.6899   -0.3632   -2.1115 H         1 <0>         0.0669
     37 H8          2.1541    1.1069   -1.2582 H         1 <0>         0.0740
     38 H9          3.8738   -0.1206    0.0534 H         1 <0>         0.0679
     39 H10         2.3143   -0.0820    0.9064 H         1 <0>         0.0860
     40 H11         1.3871   -3.6060    0.0562 H         1 <0>         0.0746
     41 H12         0.8364   -2.1342    0.8973 H         1 <0>         0.0853
     42 H13        -0.7498   -3.5915   -1.1784 H         1 <0>         0.0719
     43 H14        -1.3292   -2.0028   -0.6133 H         1 <0>         0.0741
     44 H15        -0.7435   -2.8711   -3.4707 H         1 <0>         0.0785
     45 H16        -2.3035   -2.3665   -2.7893 H         1 <0>         0.0787
     46 H17         0.9247    1.9293   -2.3297 H         1 <0>         0.1271
     47 H18        -0.2390    2.8531   -4.2862 H         1 <0>         0.1266
     48 H19        -2.3154   -0.8651   -4.7706 H         1 <0>         0.1288
     49 H20        -1.9437    3.5665   -5.2857 H         1 <0>         0.0793
     50 H21        -0.6292    2.9985   -6.3429 H         1 <0>         0.0790
     51 H22        -3.4786    1.3812   -7.5015 H         1 <0>         0.1432
     52 H23        -4.7792    2.0874   -9.4989 H         1 <0>         0.1382
     53 H24        -4.4880    4.3688  -10.3799 H         1 <0>         0.1589
     54 H25        -0.4703    5.4684   -7.7031 H         1 <0>         0.0824
     55 H26        -1.8421    6.5617   -7.4012 H         1 <0>         0.0827
     56 H27        -1.3761    5.3587   -6.1748 H         1 <0>         0.0738
     57 H28         4.9041   -4.5743   -3.1136 H         1 <0>         0.0818
     58 H29         4.4421   -3.1445   -4.0678 H         1 <0>         0.0817
     59 H30         5.9415   -3.1278   -3.1088 H         1 <0>         0.0814
     60 H31         4.3737   -2.1642    1.3852 H         1 <0>         0.3805
@<TRIPOS>BOND
     1    1    2 1
     2    1   31 1
     3    1   32 1
     4    1   33 1
     5    2    3 1
     6    2   34 1
     7    2   35 1
     8    3    8 1
     9    3   13 1
    10    3    4 1
    11    4    5 1
    12    4   36 1
    13    4   37 1
    14    5    6 1
    15    5   38 1
    16    5   39 1
    17    6    7 1
    18    6   27 1
    19    6   30 1
    20    7    8 1
    21    7   40 1
    22    7   41 1
    23    8    9 1
    24    8   10 1
    25   10   11 1
    26   10   42 1
    27   10   43 1
    28   11   12 1
    29   11   44 1
    30   11   45 1
    31   12   17 ar
    32   12   13 ar
    33   13   14 ar
    34   14   15 ar
    35   14   46 1
    36   15   16 ar
    37   15   47 1
    38   16   17 ar
    39   16   18 1
    40   17   48 1
    41   18   19 1
    42   19   20 1
    43   19   49 1
    44   19   50 1
    45   20   25 ar
    46   20   21 ar
    47   21   22 ar
    48   21   51 1
    49   22   23 ar
    50   22   52 1
    51   23   24 ar
    52   23   53 1
    53   24   25 ar
    54   25   26 1
    55   26   54 1
    56   26   55 1
    57   26   56 1
    58   27   28 3
    59   28   29 1
    60   29   57 1
    61   29   58 1
    62   29   59 1
    63   30   60 1
@<TRIPOS>MOLECULE
CHEMBL482063
   53    56     0     0     0
SMALL
USER_CHARGES

@<TRIPOS>ATOM
      1 C1          0.1619    1.9706    1.6037 C.ar      1 <0>        -0.1100
      2 C2          1.4031    2.5561    1.4384 C.ar      1 <0>        -0.1193
      3 C3          2.4729    1.7969    1.0026 C.ar      1 <0>        -0.1040
      4 C4          2.3016    0.4521    0.7324 C.ar      1 <0>        -0.1182
      5 C5          1.0605   -0.1336    0.8985 C.ar      1 <0>        -0.0978
      6 C6         -0.0096    0.6259    1.3330 C.ar      1 <0>        -0.1194
      7 C7          3.4676   -0.3754    0.2563 C.3       1 <0>         0.1575
      8 N1          4.1645   -0.9472    1.4111 N.pl3     1 <0>        -0.5637
      9 C8          3.7848   -2.1899    1.9072 C.ar      1 <0>         0.1634
     10 C9          3.1559   -2.2808    3.1461 C.ar      1 <0>        -0.1255
     11 C10         2.7791   -3.5088    3.6396 C.ar      1 <0>        -0.0454
     12 C11         3.0282   -4.6659    2.8956 C.ar      1 <0>        -0.1288
     13 C12         3.6598   -4.5714    1.6520 C.ar      1 <0>        -0.1121
     14 C13         4.0292   -3.3399    1.1614 C.ar      1 <0>        -0.1275
     15 C14         2.6259   -5.9840    3.4220 C.2       1 <0>         0.5729
     16 O1          1.9726   -6.0565    4.4450 O.2       1 <0>        -0.5315
     17 N2          2.9825   -7.1078    2.7691 N.am      1 <0>        -0.6149
     18 C15         3.6721   -7.1628    1.4718 C.3       1 <0>         0.0868
     19 C16         3.8478   -8.6525    1.1091 C.3       1 <0>        -0.1365
     20 C17         2.7450   -9.3475    1.9507 C.3       1 <0>        -0.1346
     21 C18         2.7513   -8.4854    3.2404 C.3       1 <0>         0.1032
     22 C19         5.2106   -0.2441    2.0142 C.ar      1 <0>         0.2645
     23 C20         5.8619   -0.7776    3.1193 C.ar      1 <0>        -0.1864
     24 C21         6.8957   -0.0802    3.7126 C.ar      1 <0>        -0.0051
     25 C22         7.2829    1.1477    3.2079 C.ar      1 <0>        -0.1042
     26 C23         6.6368    1.6816    2.1080 C.ar      1 <0>        -0.0051
     27 C24         5.6056    0.9872    1.5066 C.ar      1 <0>        -0.1926
     28 N3          8.3912    1.8925    3.8468 N.pl3     1 <0>         0.0431
     29 O2          8.9567    1.4272    4.8087 O.2       1 <0>        -0.1704
     30 O3          8.7308    2.9661    3.4067 O.3       1 <0>        -0.1703
     31 H1         -0.6729    2.5628    1.9485 H         1 <0>         0.1239
     32 H2          1.5370    3.6068    1.6495 H         1 <0>         0.1246
     33 H3          3.4426    2.2545    0.8728 H         1 <0>         0.1225
     34 H4          0.9265   -1.1842    0.6871 H         1 <0>         0.1196
     35 H5         -0.9793    0.1684    1.4624 H         1 <0>         0.1239
     36 H6          3.1051   -1.1795   -0.3840 H         1 <0>         0.0949
     37 H7          4.1550    0.2557   -0.3070 H         1 <0>         0.0957
     38 H8          2.9640   -1.3866    3.7205 H         1 <0>         0.1330
     39 H9          2.2916   -3.5787    4.6008 H         1 <0>         0.1420
     40 H10         3.8537   -5.4635    1.0750 H         1 <0>         0.1666
     41 H11         4.5129   -3.2658    0.1986 H         1 <0>         0.1338
     42 H12         3.0711   -6.6645    0.7111 H         1 <0>         0.0809
     43 H13         4.6475   -6.6827    1.5498 H         1 <0>         0.0813
     44 H14         3.6787   -8.8127    0.0443 H         1 <0>         0.0868
     45 H15         4.8364   -9.0065    1.4013 H         1 <0>         0.0811
     46 H16         1.7794   -9.2967    1.4476 H         1 <0>         0.0785
     47 H17         3.0148  -10.3801    2.1718 H         1 <0>         0.0884
     48 H18         3.5562   -8.7990    3.9051 H         1 <0>         0.0725
     49 H19         1.7895   -8.5562    3.7482 H         1 <0>         0.0828
     50 H20         5.5598   -1.7363    3.5142 H         1 <0>         0.1446
     51 H21         7.4022   -0.4942    4.5720 H         1 <0>         0.1531
     52 H22         6.9417    2.6408    1.7163 H         1 <0>         0.1541
     53 H23         5.1042    1.4029    0.6450 H         1 <0>         0.1473
@<TRIPOS>BOND
     1    1    6 ar
     2    1    2 ar
     3    1   31 1
     4    2    3 ar
     5    2   32 1
     6    3    4 ar
     7    3   33 1
     8    4    5 ar
     9    4    7 1
    10    5    6 ar
    11    5   34 1
    12    6   35 1
    13    7    8 1
    14    7   36 1
    15    7   37 1
    16    8    9 1
    17    8   22 1
    18    9   14 ar
    19    9   10 ar
    20   10   11 ar
    21   10   38 1
    22   11   12 ar
    23   11   39 1
    24   12   13 ar
    25   12   15 1
    26   13   14 ar
    27   13   40 1
    28   14   41 1
    29   15   16 2
    30   15   17 am
    31   17   21 1
    32   17   18 1
    33   18   19 1
    34   18   42 1
    35   18   43 1
    36   19   20 1
    37   19   44 1
    38   19   45 1
    39   20   21 1
    40   20   46 1
    41   20   47 1
    42   21   48 1
    43   21   49 1
    44   22   27 ar
    45   22   23 ar
    46   23   24 ar
    47   23   50 1
    48   24   25 ar
    49   24   51 1
    50   25   26 ar
    51   25   28 1
    52   26   27 ar
    53   26   52 1
    54   27   53 1
    55   28   29 2
    56   28   30 1
@<TRIPOS>MOLECULE
CHEMBL482064
   53    56     0     0     0
SMALL
USER_CHARGES

@<TRIPOS>ATOM
      1 C1          0.3269    2.0965    2.3544 C.ar      1 <0>        -0.1116
      2 C2          1.5812    2.6086    2.0795 C.ar      1 <0>        -0.1189
      3 C3          2.4900    1.8598    1.3554 C.ar      1 <0>        -0.0985
      4 C4          2.1447    0.5988    0.9065 C.ar      1 <0>        -0.1157
      5 C5          0.8907    0.0864    1.1821 C.ar      1 <0>        -0.1030
      6 C6         -0.0186    0.8357    1.9050 C.ar      1 <0>        -0.1217
      7 C7          3.1351   -0.2170    0.1163 C.3       1 <0>         0.1627
      8 N1          3.9385   -1.0307    1.0320 N.pl3     1 <0>        -0.5892
      9 C8          3.5136   -2.3150    1.3813 C.ar      1 <0>         0.2072
     10 C9          2.8615   -2.5280    2.5894 C.ar      1 <0>        -0.1157
     11 C10         2.4423   -3.7987    2.9313 C.ar      1 <0>        -0.0449
     12 C11         2.6711   -4.8584    2.0727 C.ar      1 <0>        -0.0491
     13 C12         3.3199   -4.6499    0.8693 C.ar      1 <0>        -0.0440
     14 C13         3.7370   -3.3809    0.5188 C.ar      1 <0>        -0.1186
     15 N2          2.2208   -6.2190    2.4427 N.pl3     1 <0>         0.0321
     16 O1          1.6538   -6.4030    3.4945 O.2       1 <0>        -0.1551
     17 O2          2.4201   -7.1465    1.6932 O.3       1 <0>        -0.1550
     18 C14         5.1300   -0.5223    1.5562 C.ar      1 <0>         0.2035
     19 C15         5.8325   -1.2449    2.5141 C.ar      1 <0>        -0.1592
     20 C16         7.0112   -0.7463    3.0355 C.ar      1 <0>        -0.0801
     21 C17         7.4989    0.4726    2.6092 C.ar      1 <0>        -0.1708
     22 C18         6.8014    1.2060    1.6479 C.ar      1 <0>        -0.0873
     23 C19         5.6148    0.7002    1.1169 C.ar      1 <0>        -0.1256
     24 C20         7.3215    2.5122    1.1900 C.2       1 <0>         0.5739
     25 O3          6.6618    3.1976    0.4333 O.2       1 <0>        -0.5344
     26 N3          8.5270    2.9428    1.6116 N.am      1 <0>        -0.6138
     27 C21         9.3789    2.2694    2.6027 C.3       1 <0>         0.0881
     28 C22        10.6423    3.1365    2.7857 C.3       1 <0>        -0.1371
     29 C23        10.1745    4.5371    2.3092 C.3       1 <0>        -0.1346
     30 C24         9.2126    4.1638    1.1507 C.3       1 <0>         0.1036
     31 H1         -0.3815    2.6797    2.9239 H         1 <0>         0.1229
     32 H2          1.8509    3.5938    2.4303 H         1 <0>         0.1233
     33 H3          3.4696    2.2602    1.1401 H         1 <0>         0.1249
     34 H4          0.6208   -0.8987    0.8311 H         1 <0>         0.1170
     35 H5         -0.9984    0.4355    2.1200 H         1 <0>         0.1227
     36 H6          2.5999   -0.8687   -0.5745 H         1 <0>         0.0894
     37 H7          3.7887    0.4499   -0.4459 H         1 <0>         0.0963
     38 H8          2.6828   -1.7010    3.2605 H         1 <0>         0.1487
     39 H9          1.9356   -3.9651    3.8704 H         1 <0>         0.1575
     40 H10         3.4970   -5.4797    0.2011 H         1 <0>         0.1585
     41 H11         4.2397   -3.2180   -0.4231 H         1 <0>         0.1509
     42 H12         5.4555   -2.1989    2.8521 H         1 <0>         0.1223
     43 H13         7.5525   -1.3121    3.7793 H         1 <0>         0.1304
     44 H14         8.4200    0.8591    3.0197 H         1 <0>         0.1596
     45 H15         5.0731    1.2612    0.3697 H         1 <0>         0.1386
     46 H16         8.8478    2.1833    3.5507 H         1 <0>         0.0818
     47 H17         9.6578    1.2798    2.2405 H         1 <0>         0.0823
     48 H18        10.9416    3.1657    3.8334 H         1 <0>         0.0864
     49 H19        11.4563    2.7687    2.1611 H         1 <0>         0.0802
     50 H20         9.6476    5.0644    3.1044 H         1 <0>         0.0782
     51 H21        11.0152    5.1259    1.9424 H         1 <0>         0.0875
     52 H22         9.7741    3.9622    0.2385 H         1 <0>         0.0716
     53 H23         8.4914    4.9640    0.9843 H         1 <0>         0.0820
@<TRIPOS>BOND
     1    1    6 ar
     2    1    2 ar
     3    1   31 1
     4    2    3 ar
     5    2   32 1
     6    3    4 ar
     7    3   33 1
     8    4    5 ar
     9    4    7 1
    10    5    6 ar
    11    5   34 1
    12    6   35 1
    13    7    8 1
    14    7   36 1
    15    7   37 1
    16    8    9 1
    17    8   18 1
    18    9   14 ar
    19    9   10 ar
    20   10   11 ar
    21   10   38 1
    22   11   12 ar
    23   11   39 1
    24   12   13 ar
    25   12   15 1
    26   13   14 ar
    27   13   40 1
    28   14   41 1
    29   15   16 2
    30   15   17 1
    31   18   23 ar
    32   18   19 ar
    33   19   20 ar
    34   19   42 1
    35   20   21 ar
    36   20   43 1
    37   21   22 ar
    38   21   44 1
    39   22   23 ar
    40   22   24 1
    41   23   45 1
    42   24   25 2
    43   24   26 am
    44   26   30 1
    45   26   27 1
    46   27   28 1
    47   27   46 1
    48   27   47 1
    49   28   29 1
    50   28   48 1
    51   28   49 1
    52   29   30 1
    53   29   50 1
    54   29   51 1
    55   30   52 1
    56   30   53 1
@<TRIPOS>MOLECULE
CHEMBL397274
   35    38     0     0     0
SMALL
USER_CHARGES

@<TRIPOS>ATOM
      1 C1         -0.0168    1.3881    0.0097 C.ar      1 <0>        -0.1550
      2 C2          1.1605    2.0846    0.0022 C.ar      1 <0>        -0.0590
      3 C3          2.3592    1.3562   -0.0132 C.ar      1 <0>        -0.0627
      4 C4          3.6586    2.0241   -0.0214 C.ar      1 <0>         0.0037
      5 C5          4.8119    1.2478   -0.0362 C.ar      1 <0>        -0.0423
      6 C6          4.7303   -0.1356   -0.0435 C.ar      1 <0>        -0.0825
      7 C7          3.5174   -0.7891   -0.0359 C.ar      1 <0>         0.1869
      8 C8          2.3086   -0.0572   -0.0203 C.ar      1 <0>         0.1416
      9 N1          1.1268   -0.6784   -0.0124 N.ar      1 <0>        -0.4546
     10 C9          0.0021   -0.0041    0.0020 C.ar      1 <0>         0.1413
     11 N2          3.4823   -2.1843   -0.0437 N.am      1 <0>        -0.5303
     12 C10         3.4580   -2.9385   -1.1651 C.2       1 <0>         0.5494
     13 O1          3.3815   -2.5502   -2.3110 O.2       1 <0>        -0.4494
     14 C11         3.5470   -4.3654   -0.6871 C.3       1 <0>         0.0492
     15 H1          4.5096   -4.8238   -0.9138 H         1 <0>         0.1524
     16 C12         2.3565   -5.2162   -1.1729 C.3       1 <0>         0.1110
     17 H2          2.5936   -5.7145   -2.1129 H         1 <0>         0.0919
     18 C13         2.2004   -6.2476   -0.0251 C.3       1 <0>        -0.1689
     19 C14         2.8666   -5.5825    1.1998 C.3       1 <0>         0.1632
     20 N3          3.2943   -4.2386    0.7736 N.am      1 <0>        -0.6299
     21 C15         3.4741   -2.9461    1.0613 C.2       1 <0>         0.7490
     22 O2          3.6105   -2.5118    2.1882 O.2       1 <0>        -0.5249
     23 O3          1.1802   -4.4158   -1.3067 O.3       1 <0>        -0.5471
     24 C16         3.7428    3.4536   -0.0148 C.1       1 <0>         0.2505
     25 N4          3.8096    4.5876   -0.0096 N.1       1 <0>        -0.3933
     26 H3         -0.9585    1.9167    0.0260 H         1 <0>         0.1471
     27 H4          1.1669    3.1646    0.0075 H         1 <0>         0.1420
     28 H5          5.7797    1.7271   -0.0424 H         1 <0>         0.1538
     29 H6          5.6408   -0.7163   -0.0557 H         1 <0>         0.1488
     30 H7         -0.9340   -0.5427    0.0084 H         1 <0>         0.1666
     31 H8          1.1455   -6.4372    0.1734 H         1 <0>         0.0940
     32 H9          2.7124   -7.1761   -0.2776 H         1 <0>         0.0986
     33 H10         2.1530   -5.5107    2.0207 H         1 <0>         0.0872
     34 H11         3.7381   -6.1587    1.5105 H         1 <0>         0.0841
     35 H12         0.4036   -4.9056   -1.6099 H         1 <0>         0.3877
@<TRIPOS>BOND
     1    1   10 ar
     2    1    2 ar
     3    1   26 1
     4    2    3 ar
     5    2   27 1
     6    3    8 ar
     7    3    4 ar
     8    4    5 ar
     9    4   24 1
    10    5    6 ar
    11    5   28 1
    12    6    7 ar
    13    6   29 1
    14    7    8 ar
    15    7   11 1
    16    8    9 ar
    17    9   10 ar
    18   10   30 1
    19   11   21 am
    20   11   12 am
    21   12   13 2
    22   12   14 1
    23   14   15 1
    24   14   20 1
    25   14   16 1
    26   16   17 1
    27   16   18 1
    28   16   23 1
    29   18   19 1
    30   18   31 1
    31   18   32 1
    32   19   20 1
    33   19   33 1
    34   19   34 1
    35   20   21 am
    36   21   22 2
    37   23   35 1
    38   24   25 3
@<TRIPOS>MOLECULE
CHEMBL181722
   36    40     0     0     0
SMALL
USER_CHARGES

@<TRIPOS>ATOM
      1 C1          0.7651    2.6996   -1.1028 C.ar      1 <0>        -0.1701
      2 C2          1.1343    2.0473    0.0397 C.ar      1 <0>        -0.0543
      3 C3          2.3356    1.3152    0.0283 C.ar      1 <0>        -0.0983
      4 C4          2.7762    0.6198    1.1670 C.ar      1 <0>        -0.0783
      5 C5          3.9416   -0.0790    1.1242 C.ar      1 <0>        -0.1029
      6 C6          4.7130   -0.1158   -0.0432 C.ar      1 <0>         0.1285
      7 C7          4.3093    0.5546   -1.1757 C.ar      1 <0>        -0.0687
      8 C8          3.1091    1.2840   -1.1594 C.ar      1 <0>         0.1351
      9 N1          2.6905    1.9449   -2.2437 N.ar      1 <0>        -0.4715
     10 C9          1.5712    2.6280   -2.2359 C.ar      1 <0>         0.1374
     11 N2          5.9099   -0.8428   -0.0591 N.am      1 <0>        -0.5313
     12 C10         5.9467   -2.1774    0.0252 C.2       1 <0>         0.5336
     13 O1          4.9779   -2.8995    0.1227 O.2       1 <0>        -0.4618
     14 C11         7.3832   -2.6457   -0.0204 C.3       1 <0>        -0.1194
     15 H1          7.6686   -3.2466    0.8430 H         1 <0>         0.1412
     16 C12         8.1879   -1.3184   -0.1475 C.3       1 <0>        -0.1186
     17 H2          8.9223   -1.1771    0.6455 H         1 <0>         0.1417
     18 C13         7.1091   -0.2595   -0.1655 C.2       1 <0>         0.5329
     19 O2          7.3012    0.9337   -0.2593 O.2       1 <0>        -0.4606
     20 C14         8.8250   -1.4127   -1.5695 C.3       1 <0>        -0.0583
     21 C15         7.6652   -2.1259   -2.3558 C.3       1 <0>        -0.1342
     22 C16         7.6187   -3.3710   -1.3826 C.3       1 <0>        -0.0578
     23 C17         9.1145   -3.7085   -1.3733 C.2       1 <0>        -0.1564
     24 C18         9.8195   -2.5747   -1.4586 C.2       1 <0>        -0.1578
     25 H3         -0.1537    3.2668   -1.1283 H         1 <0>         0.1425
     26 H4          0.5209    2.0928    0.9274 H         1 <0>         0.1435
     27 H5          2.1907    0.6408    2.0742 H         1 <0>         0.1417
     28 H6          4.2764   -0.6120    2.0018 H         1 <0>         0.1326
     29 H7          4.9119    0.5202   -2.0713 H         1 <0>         0.1394
     30 H8          1.2666    3.1487   -3.1317 H         1 <0>         0.1641
     31 H9          9.2132   -0.4834   -1.9862 H         1 <0>         0.1204
     32 H10         6.7347   -1.5587   -2.3325 H         1 <0>         0.0681
     33 H11         7.9549   -2.3986   -3.3706 H         1 <0>         0.0957
     34 H12         6.9310   -4.1821   -1.6219 H         1 <0>         0.1232
     35 H13         9.5384   -4.6973   -1.2792 H         1 <0>         0.1372
     36 H14        10.8959   -2.4877   -1.4671 H         1 <0>         0.1415
@<TRIPOS>BOND
     1    1   10 ar
     2    1    2 ar
     3    1   25 1
     4    2    3 ar
     5    2   26 1
     6    3    8 ar
     7    3    4 ar
     8    4    5 ar
     9    4   27 1
    10    5    6 ar
    11    5   28 1
    12    6    7 ar
    13    6   11 1
    14    7    8 ar
    15    7   29 1
    16    8    9 ar
    17    9   10 ar
    18   10   30 1
    19   11   18 am
    20   11   12 am
    21   12   13 2
    22   12   14 1
    23   14   15 1
    24   14   22 1
    25   14   16 1
    26   16   17 1
    27   16   18 1
    28   16   20 1
    29   18   19 2
    30   20   24 1
    31   20   21 1
    32   20   31 1
    33   21   22 1
    34   21   32 1
    35   21   33 1
    36   22   23 1
    37   22   34 1
    38   23   24 2
    39   23   35 1
    40   24   36 1
@<TRIPOS>MOLECULE
CHEMBL181722__1
   36    40     0     0     0
SMALL
USER_CHARGES

@<TRIPOS>ATOM
      1 C1          0.7651    2.6997   -1.1028 C.ar      1 <0>        -0.1706
      2 C2          1.1343    2.0473    0.0397 C.ar      1 <0>        -0.0543
      3 C3          2.3356    1.3152    0.0283 C.ar      1 <0>        -0.0988
      4 C4          2.7762    0.6198    1.1670 C.ar      1 <0>        -0.0789
      5 C5          3.9416   -0.0790    1.1242 C.ar      1 <0>        -0.1034
      6 C6          4.7130   -0.1158   -0.0432 C.ar      1 <0>         0.1313
      7 C7          4.3093    0.5546   -1.1757 C.ar      1 <0>        -0.0683
      8 C8          3.1091    1.2841   -1.1594 C.ar      1 <0>         0.1349
      9 N1          2.6905    1.9449   -2.2437 N.ar      1 <0>        -0.4717
     10 C9          1.5712    2.6281   -2.2358 C.ar      1 <0>         0.1369
     11 N2          5.9099   -0.8428   -0.0591 N.am      1 <0>        -0.5288
     12 C10         5.9467   -2.1774    0.0252 C.2       1 <0>         0.5365
     13 O1          4.9778   -2.8995    0.1220 O.2       1 <0>        -0.4649
     14 C11         7.3833   -2.6459   -0.0195 C.3       1 <0>        -0.1231
     15 H1          7.6686   -3.2454    0.8450 H         1 <0>         0.1426
     16 C12         8.1877   -1.3186   -0.1485 C.3       1 <0>        -0.1216
     17 H2          8.9233   -1.1769    0.6433 H         1 <0>         0.1435
     18 C13         7.1091   -0.2596   -0.1655 C.2       1 <0>         0.5361
     19 O2          7.3012    0.9337   -0.2586 O.2       1 <0>        -0.4636
     20 C14         8.8224   -1.4136   -1.5715 C.3       1 <0>        -0.0543
     21 C15         9.1374   -2.9524   -1.6420 C.3       1 <0>        -0.1109
     22 C16         7.6190   -3.3733   -1.3805 C.3       1 <0>        -0.0580
     23 C17         6.9017   -2.4882   -2.4070 C.2       1 <0>        -0.1740
     24 C18         7.6216   -1.3481   -2.5229 C.2       1 <0>        -0.1752
     25 H3         -0.1537    3.2668   -1.1283 H         1 <0>         0.1422
     26 H4          0.5209    2.0928    0.9274 H         1 <0>         0.1433
     27 H5          2.1906    0.6407    2.0742 H         1 <0>         0.1414
     28 H6          4.2764   -0.6120    2.0018 H         1 <0>         0.1322
     29 H7          4.9119    0.5202   -2.0713 H         1 <0>         0.1385
     30 H8          1.2666    3.1488   -3.1317 H         1 <0>         0.1638
     31 H9          9.6419   -0.7260   -1.7805 H         1 <0>         0.1228
     32 H10         9.4900   -3.2617   -2.6259 H         1 <0>         0.0896
     33 H11         9.8052   -3.2788   -0.8448 H         1 <0>         0.0885
     34 H12         7.3917   -4.4391   -1.4030 H         1 <0>         0.1224
     35 H13         5.9942   -2.7415   -2.9349 H         1 <0>         0.1395
     36 H14         7.3746   -0.5211   -3.1721 H         1 <0>         0.1341
@<TRIPOS>BOND
     1    1   10 ar
     2    1    2 ar
     3    1   25 1
     4    2    3 ar
     5    2   26 1
     6    3    8 ar
     7    3    4 ar
     8    4    5 ar
     9    4   27 1
    10    5    6 ar
    11    5   28 1
    12    6    7 ar
    13    6   11 1
    14    7    8 ar
    15    7   29 1
    16    8    9 ar
    17    9   10 ar
    18   10   30 1
    19   11   18 am
    20   11   12 am
    21   12   13 2
    22   12   14 1
    23   14   15 1
    24   14   22 1
    25   14   16 1
    26   16   17 1
    27   16   18 1
    28   16   20 1
    29   18   19 2
    30   20   24 1
    31   20   21 1
    32   20   31 1
    33   21   22 1
    34   21   32 1
    35   21   33 1
    36   22   23 1
    37   22   34 1
    38   23   24 2
    39   23   35 1
    40   24   36 1
@<TRIPOS>MOLECULE
CHEMBL141244
   40    43     0     0     0
SMALL
USER_CHARGES

@<TRIPOS>ATOM
      1 C1         -0.0184    1.5075    0.0103 C.3       1 <0>        -0.0724
      2 C2          1.4286    2.0166   -0.0008 C.3       1 <0>        -0.1665
      3 C3          2.2030    1.2922    1.0767 C.2       1 <0>         0.3615
      4 O1          2.7945    1.9101    1.9291 O.2       1 <0>        -0.4584
      5 C4          2.2235   -0.2193    1.0684 C.3       1 <0>        -0.1665
      6 C5          0.7765   -0.7285    1.0794 C.3       1 <0>        -0.0727
      7 C6          0.0021   -0.0041    0.0020 C.2       1 <0>        -0.1309
      8 C7         -0.6395   -0.6743   -0.9227 C.2       1 <0>        -0.1123
      9 C8         -1.4623   -0.1316   -2.0857 C.3       1 <0>        -0.0911
     10 C9         -1.1335   -1.0709   -3.2632 C.3       1 <0>        -0.0837
     11 H1         -0.3882   -0.6482   -3.9370 H         1 <0>         0.0805
     12 C10        -2.4668   -1.4177   -3.9920 C.3       1 <0>        -0.0973
     13 H2         -3.1177   -0.5736   -4.2201 H         1 <0>         0.0982
     14 C11        -3.0549   -2.5036   -3.0238 C.3       1 <0>        -0.1272
     15 C12        -1.7887   -3.4306   -3.0248 C.3       1 <0>        -0.0900
     16 H3         -1.8565   -4.3378   -2.4245 H         1 <0>         0.1012
     17 C13        -0.6667   -2.4055   -2.6203 C.3       1 <0>        -0.0741
     18 H4          0.3254   -2.7069   -2.9564 H         1 <0>         0.0950
     19 C14        -0.7381   -2.1852   -1.0996 C.3       1 <0>        -0.0915
     20 C15        -1.5861   -3.6414   -4.5563 C.3       1 <0>         0.0985
     21 H5         -2.2082   -4.4625   -4.9125 H         1 <0>         0.0571
     22 C16        -2.0328   -2.2907   -5.2087 C.3       1 <0>        -0.1538
     23 O2         -0.2105   -3.8980   -4.8462 O.3       1 <0>        -0.5617
     24 H6         -0.5241    1.8617    0.9087 H         1 <0>         0.0765
     25 H7         -0.5411    1.8712   -0.8743 H         1 <0>         0.0827
     26 H8          1.8795    1.8166   -0.9728 H         1 <0>         0.0984
     27 H9          1.4409    3.0884    0.1976 H         1 <0>         0.0898
     28 H10         2.7292   -0.5735    0.1700 H         1 <0>         0.0987
     29 H11         2.7462   -0.5831    1.9530 H         1 <0>         0.0900
     30 H12         0.7642   -1.8002    0.8811 H         1 <0>         0.0833
     31 H13         0.3256   -0.5284    2.0514 H         1 <0>         0.0764
     32 H14        -2.5260   -0.1733   -1.8513 H         1 <0>         0.0805
     33 H15        -1.1631    0.8902   -2.3191 H         1 <0>         0.0676
     34 H16        -3.2640   -2.0984   -2.0338 H         1 <0>         0.0784
     35 H17        -3.9263   -3.0015   -3.4491 H         1 <0>         0.0710
     36 H18         0.0966   -2.6814   -0.6045 H         1 <0>         0.0681
     37 H19        -1.6867   -2.5529   -0.7082 H         1 <0>         0.0792
     38 H20        -2.8764   -2.4538   -5.8795 H         1 <0>         0.0664
     39 H21        -1.2085   -1.8168   -5.7417 H         1 <0>         0.0747
     40 H22        -0.0257   -4.0370   -5.7851 H         1 <0>         0.3763
@<TRIPOS>BOND
     1    1    7 1
     2    1    2 1
     3    1   24 1
     4    1   25 1
     5    2    3 1
     6    2   26 1
     7    2   27 1
     8    3    4 2
     9    3    5 1
    10    5    6 1
    11    5   28 1
    12    5   29 1
    13    6    7 1
    14    6   30 1
    15    6   31 1
    16    7    8 2
    17    8   19 1
    18    8    9 1
    19    9   10 1
    20    9   32 1
    21    9   33 1
    22   10   11 1
    23   10   17 1
    24   10   12 1
    25   12   13 1
    26   12   22 1
    27   12   14 1
    28   14   15 1
    29   14   34 1
    30   14   35 1
    31   15   16 1
    32   15   17 1
    33   15   20 1
    34   17   18 1
    35   17   19 1
    36   19   36 1
    37   19   37 1
    38   20   21 1
    39   20   22 1
    40   20   23 1
    41   22   38 1
    42   22   39 1
    43   23   40 1
@<TRIPOS>MOLECULE
CHEMBL361245
   58    62     0     0     0
SMALL
USER_CHARGES

@<TRIPOS>ATOM
      1 C1          0.3702    1.0792    0.9204 C.3       1 <0>        -0.2060
      2 C2         -0.0283    0.1171   -0.1688 C.2       1 <0>         0.3554
      3 O1          0.6303    0.0413   -1.1782 O.2       1 <0>        -0.4312
      4 C3         -1.2454   -0.7482    0.0010 C.3       1 <0>         0.0758
      5 C4         -1.7292   -1.2851   -1.3721 C.3       1 <0>        -0.1342
      6 C5         -1.8679   -2.8278   -1.2107 C.3       1 <0>        -0.1198
      7 C6         -2.0008   -2.9691    0.3133 C.3       1 <0>        -0.0714
      8 C7         -0.8787   -2.0211    0.7930 C.3       1 <0>        -0.0267
      9 C8         -0.9139   -1.8902    2.2916 C.3       1 <0>        -0.1063
     10 C9         -0.9459   -3.2594    2.9843 C.3       1 <0>        -0.1067
     11 C10        -0.8701   -4.4239    2.0194 C.3       1 <0>        -0.0659
     12 C11        -1.9101   -4.3315    0.9091 C.3       1 <0>        -0.0405
     13 C12        -1.6867   -5.4392   -0.0916 C.2       1 <0>        -0.0932
     14 C13        -1.6359   -6.6885    0.4450 C.2       1 <0>        -0.0852
     15 C14        -1.8109   -6.7230    1.9168 C.2       1 <0>         0.0290
     16 C15        -2.6804   -7.6052    2.4413 C.2       1 <0>        -0.2174
     17 C16        -2.9382   -7.7055    3.8156 C.2       1 <0>         0.4170
     18 O2         -3.6067   -8.6222    4.2481 O.2       1 <0>        -0.4493
     19 C17        -2.3947   -6.6555    4.7526 C.3       1 <0>        -0.2092
     20 H1         -2.2441   -6.9698    5.7832 H         1 <0>         0.1328
     21 C18        -2.8398   -5.2121    4.5002 C.3       1 <0>        -0.1421
     22 C19        -1.4123   -5.6420    4.1684 C.3       1 <0>        -0.1147
     23 C20        -0.9851   -5.7714    2.7264 C.3       1 <0>        -0.0013
     24 C21         0.4345   -6.3495    2.7480 C.3       1 <0>        -0.1463
     25 Cl1        -1.3890   -8.1158   -0.5123 Cl        1 <0>        -0.0468
     26 C22         0.5086   -2.4376    0.3046 C.3       1 <0>        -0.1635
     27 O3         -2.2902   -0.0406    0.6598 O.3       1 <0>        -0.3254
     28 C23        -2.7481    1.0688    0.0586 C.2       1 <0>         0.4506
     29 O4         -2.3206    1.3889   -1.0252 O.2       1 <0>        -0.4993
     30 C24        -3.7953    1.9151    0.7355 C.3       1 <0>        -0.1485
     31 H2          1.3180    1.5504    0.6602 H         1 <0>         0.0882
     32 H3         -0.3985    1.8445    1.0282 H         1 <0>         0.0878
     33 H4          0.4792    0.5387    1.8607 H         1 <0>         0.0968
     34 H5         -2.6938   -0.8496   -1.6252 H         1 <0>         0.0783
     35 H6         -0.9935   -1.0576   -2.1420 H         1 <0>         0.0946
     36 H7         -2.7807   -3.1738   -1.7015 H         1 <0>         0.0737
     37 H8         -1.0062   -3.3505   -1.6016 H         1 <0>         0.0812
     38 H9         -2.9775   -2.5255    0.6004 H         1 <0>         0.0868
     39 H10        -0.0301   -1.3319    2.6328 H         1 <0>         0.0651
     40 H11        -1.7991   -1.3127    2.5938 H         1 <0>         0.0807
     41 H12        -0.1114   -3.3213    3.6955 H         1 <0>         0.0710
     42 H13        -1.8747   -3.3326    3.5685 H         1 <0>         0.0759
     43 H14         0.1234   -4.4516    1.5708 H         1 <0>         0.0895
     44 H15        -2.8930   -4.5446    1.3822 H         1 <0>         0.0837
     45 H16        -1.5789   -5.2588   -1.1481 H         1 <0>         0.1438
     46 H17        -3.2080   -8.2662    1.7704 H         1 <0>         0.1376
     47 H18        -3.5210   -5.0346    3.6684 H         1 <0>         0.1010
     48 H19        -2.9846   -4.5715    5.3703 H         1 <0>         0.1124
     49 H20        -0.6309   -5.2880    4.8451 H         1 <0>         0.1249
     50 H21         1.0944   -5.6720    3.2899 H         1 <0>         0.0711
     51 H22         0.4240   -7.3203    3.2435 H         1 <0>         0.0621
     52 H23         0.7945   -6.4671    1.7259 H         1 <0>         0.0645
     53 H24         1.1924   -1.5930    0.3897 H         1 <0>         0.0596
     54 H25         0.8749   -3.2644    0.9130 H         1 <0>         0.0784
     55 H26         0.4477   -2.7522   -0.7373 H         1 <0>         0.0728
     56 H27        -4.0553    1.4716    1.6967 H         1 <0>         0.0939
     57 H28        -3.4040    2.9202    0.8931 H         1 <0>         0.1074
     58 H29        -4.6840    1.9656    0.1064 H         1 <0>         0.1072
@<TRIPOS>BOND
     1    1    2 1
     2    1   31 1
     3    1   32 1
     4    1   33 1
     5    2    3 2
     6    2    4 1
     7    4    8 1
     8    4    5 1
     9    4   27 1
    10    5    6 1
    11    5   34 1
    12    5   35 1
    13    6    7 1
    14    6   36 1
    15    6   37 1
    16    7   12 1
    17    7    8 1
    18    7   38 1
    19    8    9 1
    20    8   26 1
    21    9   10 1
    22    9   39 1
    23    9   40 1
    24   10   11 1
    25   10   41 1
    26   10   42 1
    27   11   23 1
    28   11   12 1
    29   11   43 1
    30   12   13 1
    31   12   44 1
    32   13   14 2
    33   13   45 1
    34   14   15 1
    35   14   25 1
    36   15   23 1
    37   15   16 2
    38   16   17 1
    39   16   46 1
    40   17   18 2
    41   17   19 1
    42   19   20 1
    43   19   22 1
    44   19   21 1
    45   21   22 1
    46   21   47 1
    47   21   48 1
    48   22   23 1
    49   22   49 1
    50   23   24 1
    51   24   50 1
    52   24   51 1
    53   24   52 1
    54   26   53 1
    55   26   54 1
    56   26   55 1
    57   27   28 1
    58   28   29 2
    59   28   30 1
    60   30   56 1
    61   30   57 1
    62   30   58 1
@<TRIPOS>MOLECULE
CHEMBL361245__1
   58    62     0     0     0
SMALL
USER_CHARGES

@<TRIPOS>ATOM
      1 C1          0.3797    1.0959    0.9163 C.3       1 <0>        -0.2060
      2 C2         -0.0260    0.1417   -0.1773 C.2       1 <0>         0.3558
      3 O1          0.6279    0.0708   -1.1901 O.2       1 <0>        -0.4313
      4 C3         -1.2448   -0.7222   -0.0073 C.3       1 <0>         0.0763
      5 C4         -1.7393   -1.2398   -1.3829 C.3       1 <0>        -0.1345
      6 C5         -1.8630   -2.7853   -1.2482 C.3       1 <0>        -0.1199
      7 C6         -1.9846   -2.9558    0.2754 C.3       1 <0>        -0.0774
      8 C7         -0.8771   -2.0036    0.7701 C.3       1 <0>        -0.0255
      9 C8         -0.9583   -1.8937    2.2704 C.3       1 <0>        -0.1044
     10 C9         -0.9582   -3.2756    2.9284 C.3       1 <0>        -0.1171
     11 C10        -0.8541   -4.4399    1.9589 C.3       1 <0>        -0.0627
     12 C11        -1.8385   -4.3589    0.8063 C.3       1 <0>        -0.0331
     13 C12        -3.2029   -4.8726    1.1723 C.2       1 <0>        -0.0882
     14 C13        -3.4785   -5.5908    2.2503 C.2       1 <0>        -0.0665
     15 C14        -2.4019   -5.9539    3.1866 C.2       1 <0>         0.0312
     16 C15        -2.7376   -6.4511    4.3926 C.2       1 <0>        -0.2293
     17 C16        -1.7988   -6.8351    5.3587 C.2       1 <0>         0.4182
     18 O2         -2.1539   -7.4180    6.3618 O.2       1 <0>        -0.4508
     19 C17        -0.3423   -6.5014    5.1492 C.3       1 <0>        -0.2106
     20 H1          0.3732   -7.1536    5.6430 H         1 <0>         0.1321
     21 C18         0.0008   -5.0116    5.0389 C.3       1 <0>        -0.1460
     22 C19         0.0493   -5.9003    3.8016 C.3       1 <0>        -0.1165
     23 C20        -0.9954   -5.7657    2.7152 C.3       1 <0>         0.0011
     24 C21        -0.7060   -6.8899    1.7085 C.3       1 <0>        -0.1487
     25 Cl1        -5.1085   -6.1044    2.5590 Cl        1 <0>        -0.0600
     26 C22         0.5216   -2.4092    0.3092 C.3       1 <0>        -0.1624
     27 O3         -2.2828   -0.0161    0.6642 O.3       1 <0>        -0.3253
     28 C23        -2.7417    1.0990    0.0745 C.2       1 <0>         0.4509
     29 O4         -2.3216    1.4253   -1.0104 O.2       1 <0>        -0.4996
     30 C24        -3.7808    1.9439    0.7655 C.3       1 <0>        -0.1487
     31 H2          1.3275    1.5664    0.6548 H         1 <0>         0.0884
     32 H3         -0.3866    1.8624    1.0324 H         1 <0>         0.0877
     33 H4          0.4915    0.5492    1.8526 H         1 <0>         0.0968
     34 H5         -2.7108   -0.8089   -1.6173 H         1 <0>         0.0779
     35 H6         -1.0155   -0.9913   -2.1573 H         1 <0>         0.0948
     36 H7         -2.7732   -3.1334   -1.7409 H         1 <0>         0.0735
     37 H8         -0.9948   -3.2921   -1.6486 H         1 <0>         0.0811
     38 H9         -2.9691   -2.5608    0.5863 H         1 <0>         0.0879
     39 H10        -0.1062   -1.3109    2.6456 H         1 <0>         0.0658
     40 H11        -1.8747   -1.3594    2.5563 H         1 <0>         0.0794
     41 H12        -0.1068   -3.3169    3.6247 H         1 <0>         0.0785
     42 H13        -1.8711   -3.3846    3.5273 H         1 <0>         0.0632
     43 H14         0.1709   -4.4704    1.5491 H         1 <0>         0.0941
     44 H15        -1.4689   -4.9859   -0.0180 H         1 <0>         0.0991
     45 H16        -4.0165   -4.6342    0.5012 H         1 <0>         0.1275
     46 H17        -3.7850   -6.5581    4.6300 H         1 <0>         0.1397
     47 H18        -0.8250   -4.3069    5.1381 H         1 <0>         0.1065
     48 H19         0.9490   -4.6838    5.4668 H         1 <0>         0.1117
     49 H20         1.0451   -6.1619    3.4341 H         1 <0>         0.1233
     50 H21         0.3047   -6.7757    1.3169 H         1 <0>         0.0713
     51 H22        -0.7958   -7.8554    2.2064 H         1 <0>         0.0636
     52 H23        -1.4218   -6.8362    0.8882 H         1 <0>         0.0650
     53 H24         1.1989   -1.5617    0.4145 H         1 <0>         0.0601
     54 H25         0.8792   -3.2381    0.9200 H         1 <0>         0.0802
     55 H26         0.4848   -2.7173   -0.7357 H         1 <0>         0.0728
     56 H27        -4.0347    1.4945    1.7255 H         1 <0>         0.0938
     57 H28        -3.3850    2.9466    0.9270 H         1 <0>         0.1076
     58 H29        -4.6742    2.0017    0.1437 H         1 <0>         0.1073
@<TRIPOS>BOND
     1    1    2 1
     2    1   31 1
     3    1   32 1
     4    1   33 1
     5    2    3 2
     6    2    4 1
     7    4    8 1
     8    4    5 1
     9    4   27 1
    10    5    6 1
    11    5   34 1
    12    5   35 1
    13    6    7 1
    14    6   36 1
    15    6   37 1
    16    7   12 1
    17    7    8 1
    18    7   38 1
    19    8    9 1
    20    8   26 1
    21    9   10 1
    22    9   39 1
    23    9   40 1
    24   10   11 1
    25   10   41 1
    26   10   42 1
    27   11   23 1
    28   11   12 1
    29   11   43 1
    30   12   13 1
    31   12   44 1
    32   13   14 2
    33   13   45 1
    34   14   15 1
    35   14   25 1
    36   15   23 1
    37   15   16 2
    38   16   17 1
    39   16   46 1
    40   17   18 2
    41   17   19 1
    42   19   20 1
    43   19   22 1
    44   19   21 1
    45   21   22 1
    46   21   47 1
    47   21   48 1
    48   22   23 1
    49   22   49 1
    50   23   24 1
    51   24   50 1
    52   24   51 1
    53   24   52 1
    54   26   53 1
    55   26   54 1
    56   26   55 1
    57   27   28 1
    58   28   29 2
    59   28   30 1
    60   30   56 1
    61   30   57 1
    62   30   58 1
@<TRIPOS>MOLECULE
CHEMBL361245__2
   58    62     0     0     0
SMALL
USER_CHARGES

@<TRIPOS>ATOM
      1 C1          0.1565    1.0490    0.3400 C.3       1 <0>        -0.2052
      2 C2         -0.1736   -0.1686   -0.4844 C.2       1 <0>         0.3550
      3 O1          0.4860   -0.4339   -1.4605 O.2       1 <0>        -0.4312
      4 C3         -1.3256   -1.0540   -0.0911 C.3       1 <0>         0.0803
      5 C4         -1.8014   -1.8916   -1.3072 C.3       1 <0>        -0.1330
      6 C5         -1.7383   -3.3825   -0.8616 C.3       1 <0>        -0.1183
      7 C6         -1.8452   -3.2521    0.6639 C.3       1 <0>        -0.0745
      8 C7         -0.8584   -2.0969    0.9360 C.3       1 <0>        -0.0334
      9 C8         -0.9612   -1.6994    2.3904 C.3       1 <0>        -0.1052
     10 C9         -0.5831   -2.9220    3.2514 C.3       1 <0>        -0.1122
     11 C10        -1.5130   -4.0903    2.9763 C.3       1 <0>        -0.0607
     12 C11        -1.5707   -4.4680    1.4940 C.3       1 <0>        -0.0386
     13 C12        -0.3643   -5.2520    1.0644 C.2       1 <0>        -0.0891
     14 C13        -0.0129   -6.3015    1.8510 C.2       1 <0>        -0.0868
     15 C14        -0.9060   -6.5079    3.0151 C.2       1 <0>         0.0300
     16 C15        -1.3547   -7.7515    3.2615 C.2       1 <0>        -0.2208
     17 C16        -2.2196   -8.0626    4.3192 C.2       1 <0>         0.4182
     18 O2         -2.4627   -9.2185    4.5958 O.2       1 <0>        -0.4489
     19 C17        -2.8592   -6.9429    5.1013 C.3       1 <0>        -0.2064
     20 H1         -3.1724   -7.1901    6.1141 H         1 <0>         0.1327
     21 C18        -3.7225   -5.9547    4.3100 C.3       1 <0>        -0.1470
     22 C19        -2.3527   -5.5298    4.8368 C.3       1 <0>        -0.1193
     23 C20        -1.2253   -5.3030    3.8454 C.3       1 <0>         0.0067
     24 C21         0.0196   -5.0364    4.6903 C.3       1 <0>        -0.1455
     25 Cl1         1.3627   -7.3097    1.5188 Cl        1 <0>        -0.0471
     26 C22         0.5879   -2.4598    0.5929 C.3       1 <0>        -0.1597
     27 O3         -2.3996   -0.2819    0.4386 O.3       1 <0>        -0.3257
     28 C23        -2.9280    0.6570   -0.3621 C.2       1 <0>         0.4507
     29 O4         -2.5315    0.7757   -1.4972 O.2       1 <0>        -0.5000
     30 C24        -4.0156    1.5629    0.1549 C.3       1 <0>        -0.1484
     31 H2          1.0648    1.5128   -0.0446 H         1 <0>         0.0882
     32 H3         -0.6671    1.7607    0.2828 H         1 <0>         0.0871
     33 H4          0.3105    0.7542    1.3780 H         1 <0>         0.0961
     34 H5         -2.8244   -1.6250   -1.5675 H         1 <0>         0.0774
     35 H6         -1.1386   -1.7284   -2.1553 H         1 <0>         0.0936
     36 H7         -2.5980   -3.9294   -1.2553 H         1 <0>         0.0743
     37 H8         -0.8132   -3.8515   -1.1702 H         1 <0>         0.0786
     38 H9         -2.8692   -2.8995    0.8952 H         1 <0>         0.0879
     39 H10        -0.2730   -0.8806    2.6073 H         1 <0>         0.0695
     40 H11        -1.9803   -1.3929    2.6300 H         1 <0>         0.0800
     41 H12         0.4500   -3.1813    3.0555 H         1 <0>         0.0737
     42 H13        -0.6882   -2.6103    4.2970 H         1 <0>         0.0735
     43 H14        -2.5338   -3.7481    3.2445 H         1 <0>         0.0860
     44 H15        -2.4449   -5.1425    1.3788 H         1 <0>         0.0871
     45 H16         0.1908   -5.0292    0.1634 H         1 <0>         0.1394
     46 H17        -1.0320   -8.5507    2.6107 H         1 <0>         0.1375
     47 H18        -3.8226   -6.1247    3.2380 H         1 <0>         0.1007
     48 H19        -4.6039   -5.5493    4.8063 H         1 <0>         0.1114
     49 H20        -2.3515   -4.8436    5.6843 H         1 <0>         0.1246
     50 H21        -0.1510   -4.1661    5.3240 H         1 <0>         0.0737
     51 H22         0.2279   -5.9052    5.3146 H         1 <0>         0.0605
     52 H23         0.8699   -4.8476    4.0350 H         1 <0>         0.0659
     53 H24         1.2290   -1.5941    0.7593 H         1 <0>         0.0595
     54 H25         0.9165   -3.2826    1.2279 H         1 <0>         0.0785
     55 H26         0.6487   -2.7613   -0.4528 H         1 <0>         0.0702
     56 H27        -4.2390    1.3080    1.1909 H         1 <0>         0.0939
     57 H28        -3.6822    2.5992    0.0995 H         1 <0>         0.1073
     58 H29        -4.9124    1.4368   -0.4517 H         1 <0>         0.1072
@<TRIPOS>BOND
     1    1    2 1
     2    1   31 1
     3    1   32 1
     4    1   33 1
     5    2    3 2
     6    2    4 1
     7    4    8 1
     8    4    5 1
     9    4   27 1
    10    5    6 1
    11    5   34 1
    12    5   35 1
    13    6    7 1
    14    6   36 1
    15    6   37 1
    16    7   12 1
    17    7    8 1
    18    7   38 1
    19    8    9 1
    20    8   26 1
    21    9   10 1
    22    9   39 1
    23    9   40 1
    24   10   11 1
    25   10   41 1
    26   10   42 1
    27   11   23 1
    28   11   12 1
    29   11   43 1
    30   12   13 1
    31   12   44 1
    32   13   14 2
    33   13   45 1
    34   14   15 1
    35   14   25 1
    36   15   23 1
    37   15   16 2
    38   16   17 1
    39   16   46 1
    40   17   18 2
    41   17   19 1
    42   19   20 1
    43   19   22 1
    44   19   21 1
    45   21   22 1
    46   21   47 1
    47   21   48 1
    48   22   23 1
    49   22   49 1
    50   23   24 1
    51   24   50 1
    52   24   51 1
    53   24   52 1
    54   26   53 1
    55   26   54 1
    56   26   55 1
    57   27   28 1
    58   28   29 2
    59   28   30 1
    60   30   56 1
    61   30   57 1
    62   30   58 1
@<TRIPOS>MOLECULE
CHEMBL361245__3
   58    62     0     0     0
SMALL
USER_CHARGES

@<TRIPOS>ATOM
      1 C1          0.2413    0.9607    0.5241 C.3       1 <0>        -0.2048
      2 C2         -0.0952   -0.2042   -0.3709 C.2       1 <0>         0.3540
      3 O1          0.6025   -0.4543   -1.3243 O.2       1 <0>        -0.4305
      4 C3         -1.3023   -1.0568   -0.0761 C.3       1 <0>         0.0888
      5 C4         -1.7730   -1.7836   -1.3608 C.3       1 <0>        -0.1310
      6 C5         -1.7459   -3.3030   -1.0392 C.3       1 <0>        -0.1198
      7 C6         -1.8770   -3.3334    0.4873 C.3       1 <0>        -0.0737
      8 C7         -0.9388   -2.1663    0.9038 C.3       1 <0>        -0.0422
      9 C8         -1.1674   -1.8830    2.3737 C.3       1 <0>        -0.0998
     10 C9         -0.7455   -3.1371    3.1626 C.3       1 <0>        -0.1152
     11 C10        -1.5215   -4.3575    2.6872 C.3       1 <0>        -0.0663
     12 C11        -1.3505   -4.5743    1.1768 C.3       1 <0>        -0.0574
     13 C12        -2.0504   -5.8182    0.7336 C.2       1 <0>        -0.0853
     14 C13        -2.3327   -6.8255    1.5575 C.2       1 <0>        -0.0691
     15 C14        -1.9769   -6.7476    2.9846 C.2       1 <0>         0.0267
     16 C15        -2.4655   -7.6808    3.8233 C.2       1 <0>        -0.2271
     17 C16        -2.2768   -7.6511    5.2106 C.2       1 <0>         0.4167
     18 O2         -2.6564   -8.5780    5.8977 O.2       1 <0>        -0.4508
     19 C17        -1.6000   -6.4635    5.8480 C.3       1 <0>        -0.2029
     20 H1         -1.0725   -6.6652    6.7803 H         1 <0>         0.1324
     21 C18        -2.2936   -5.1059    5.7027 C.3       1 <0>        -0.1438
     22 C19        -1.0030   -5.4203    4.9074 C.3       1 <0>        -0.1202
     23 C20        -1.0795   -5.6236    3.4134 C.3       1 <0>         0.0067
     24 C21         0.3361   -5.9561    2.9375 C.3       1 <0>        -0.1518
     25 Cl1        -3.1272   -8.2421    0.9445 Cl        1 <0>        -0.0602
     26 C22         0.5191   -2.5801    0.6930 C.3       1 <0>        -0.1645
     27 O3         -2.3576   -0.2530    0.4552 O.3       1 <0>        -0.3273
     28 C23        -2.8191    0.7388   -0.3227 C.2       1 <0>         0.4513
     29 O4         -2.3891    0.8774   -1.4433 O.2       1 <0>        -0.5004
     30 C24        -3.8733    1.6793    0.2016 C.3       1 <0>        -0.1486
     31 H2          1.1827    1.4060    0.2024 H         1 <0>         0.0885
     32 H3         -0.5521    1.7057    0.4645 H         1 <0>         0.0873
     33 H4          0.3366    0.6129    1.5527 H         1 <0>         0.0966
     34 H5         -2.7861   -1.4733   -1.6164 H         1 <0>         0.0778
     35 H6         -1.0946   -1.5635   -2.1850 H         1 <0>         0.0934
     36 H7         -2.5879   -3.8116   -1.5087 H         1 <0>         0.0763
     37 H8         -0.8016   -3.7470   -1.3541 H         1 <0>         0.0774
     38 H9         -2.9076   -3.1409    0.7853 H         1 <0>         0.0908
     39 H10        -0.5633   -1.0304    2.6841 H         1 <0>         0.0710
     40 H11        -2.2224   -1.6731    2.5499 H         1 <0>         0.0798
     41 H12         0.3208   -3.3107    3.0176 H         1 <0>         0.0735
     42 H13        -0.9418   -2.9773    4.2228 H         1 <0>         0.0786
     43 H14        -2.5814   -4.1953    2.8832 H         1 <0>         0.0791
     44 H15        -0.2888   -4.6789    0.9533 H         1 <0>         0.1105
     45 H16        -2.3410   -5.9039   -0.3030 H         1 <0>         0.1318
     46 H17        -3.0338   -8.4973    3.4029 H         1 <0>         0.1405
     47 H18        -3.2358   -5.0778    5.1553 H         1 <0>         0.1013
     48 H19        -2.2119   -4.4070    6.5352 H         1 <0>         0.1117
     49 H20        -0.0952   -4.9242    5.2507 H         1 <0>         0.1245
     50 H21         1.0034   -5.1277    3.1756 H         1 <0>         0.0734
     51 H22         0.6850   -6.8592    3.4383 H         1 <0>         0.0640
     52 H23         0.3284   -6.1182    1.8597 H         1 <0>         0.0662
     53 H24         1.1726   -1.7394    0.9258 H         1 <0>         0.0601
     54 H25         0.7573   -3.4179    1.3483 H         1 <0>         0.0830
     55 H26         0.6658   -2.8777   -0.3452 H         1 <0>         0.0704
     56 H27        -4.1347    1.3996    1.2222 H         1 <0>         0.0939
     57 H28        -3.4880    2.6989    0.1917 H         1 <0>         0.1074
     58 H29        -4.7598    1.6198   -0.4298 H         1 <0>         0.1073
@<TRIPOS>BOND
     1    1    2 1
     2    1   31 1
     3    1   32 1
     4    1   33 1
     5    2    3 2
     6    2    4 1
     7    4    8 1
     8    4    5 1
     9    4   27 1
    10    5    6 1
    11    5   34 1
    12    5   35 1
    13    6    7 1
    14    6   36 1
    15    6   37 1
    16    7   12 1
    17    7    8 1
    18    7   38 1
    19    8    9 1
    20    8   26 1
    21    9   10 1
    22    9   39 1
    23    9   40 1
    24   10   11 1
    25   10   41 1
    26   10   42 1
    27   11   23 1
    28   11   12 1
    29   11   43 1
    30   12   13 1
    31   12   44 1
    32   13   14 2
    33   13   45 1
    34   14   15 1
    35   14   25 1
    36   15   23 1
    37   15   16 2
    38   16   17 1
    39   16   46 1
    40   17   18 2
    41   17   19 1
    42   19   20 1
    43   19   22 1
    44   19   21 1
    45   21   22 1
    46   21   47 1
    47   21   48 1
    48   22   23 1
    49   22   49 1
    50   23   24 1
    51   24   50 1
    52   24   51 1
    53   24   52 1
    54   26   53 1
    55   26   54 1
    56   26   55 1
    57   27   28 1
    58   28   29 2
    59   28   30 1
    60   30   56 1
    61   30   57 1
    62   30   58 1
@<TRIPOS>MOLECULE
CHEMBL361245__4
   58    62     0     0     0
SMALL
USER_CHARGES

@<TRIPOS>ATOM
      1 C1          0.3703    0.8914    1.1611 C.3       1 <0>        -0.2062
      2 C2          0.0675   -0.0729    0.0432 C.2       1 <0>         0.3530
      3 O1          0.8258   -0.1712   -0.8914 O.2       1 <0>        -0.4303
      4 C3         -1.1817   -0.9145    0.0918 C.3       1 <0>         0.0842
      5 C4         -1.5519   -1.3983   -1.3248 C.3       1 <0>        -0.1332
      6 C5         -1.5177   -2.9417   -1.2834 C.3       1 <0>        -0.1264
      7 C6         -1.7560   -3.2806    0.2176 C.3       1 <0>        -0.0701
      8 C7         -0.9329   -2.1829    0.9187 C.3       1 <0>        -0.0315
      9 C8         -1.2937   -2.0058    2.3756 C.3       1 <0>        -0.1055
     10 C9         -2.7971   -1.7910    2.5590 C.3       1 <0>        -0.1277
     11 C10        -3.5257   -3.0064    1.9784 C.3       1 <0>        -0.0627
     12 C11        -3.2476   -3.0735    0.4830 C.3       1 <0>        -0.0514
     13 C12        -4.0474   -4.1809   -0.1594 C.2       1 <0>        -0.0974
     14 C13        -5.3768   -4.1915    0.1060 C.2       1 <0>        -0.0837
     15 C14        -5.8142   -3.1036    1.0135 C.2       1 <0>         0.0334
     16 C15        -6.8798   -2.3622    0.6672 C.2       1 <0>        -0.2222
     17 C16        -7.3324   -1.2672    1.4161 C.2       1 <0>         0.4165
     18 O2         -8.3446   -0.6809    1.0887 O.2       1 <0>        -0.4501
     19 C17        -6.5573   -0.8199    2.6293 C.3       1 <0>        -0.2056
     20 H1         -7.1462   -0.3530    3.4188 H         1 <0>         0.1335
     21 C18        -5.1377   -0.2951    2.3985 C.3       1 <0>        -0.1521
     22 C19        -5.3644   -1.6736    3.0482 C.3       1 <0>        -0.1145
     23 C20        -5.0171   -2.9209    2.2670 C.3       1 <0>         0.0027
     24 C21        -5.3544   -4.1026    3.1784 C.3       1 <0>        -0.1434
     25 Cl1        -6.4665   -5.3696   -0.5561 Cl        1 <0>        -0.0472
     26 C22         0.5510   -2.5461    0.8347 C.3       1 <0>        -0.1579
     27 O3         -2.2593   -0.1634    0.6545 O.3       1 <0>        -0.3180
     28 C23        -2.6591    0.9268   -0.0189 C.2       1 <0>         0.4423
     29 O4         -2.1804    1.1789   -1.0992 O.2       1 <0>        -0.4951
     30 C24        -3.7051    1.8363    0.5725 C.3       1 <0>        -0.1654
     31 H2          1.3489    1.3423    0.9968 H         1 <0>         0.0879
     32 H3         -0.3902    1.6720    1.1836 H         1 <0>         0.0887
     33 H4          0.3711    0.3575    2.1113 H         1 <0>         0.0977
     34 H5         -2.5518   -1.0535   -1.5881 H         1 <0>         0.0769
     35 H6         -0.8256   -1.0276   -2.0481 H         1 <0>         0.0932
     36 H7         -2.3135   -3.3586   -1.9007 H         1 <0>         0.0763
     37 H8         -0.5457   -3.3117   -1.6095 H         1 <0>         0.0766
     38 H9         -1.4272   -4.2874    0.4753 H         1 <0>         0.1003
     39 H10        -0.9911   -2.8953    2.9282 H         1 <0>         0.0707
     40 H11        -0.7595   -1.1426    2.7725 H         1 <0>         0.0691
     41 H12        -3.0285   -1.6952    3.6199 H         1 <0>         0.0725
     42 H13        -3.1071   -0.8891    2.0311 H         1 <0>         0.1093
     43 H14        -3.1281   -3.9098    2.4409 H         1 <0>         0.0847
     44 H15        -3.5553   -2.1318    0.0283 H         1 <0>         0.0910
     45 H16        -3.5866   -4.9227   -0.7948 H         1 <0>         0.1394
     46 H17        -7.4145   -2.6229   -0.2342 H         1 <0>         0.1365
     47 H18        -4.7699   -0.2719    1.3727 H         1 <0>         0.1053
     48 H19        -4.7884    0.5123    3.0421 H         1 <0>         0.1150
     49 H20        -5.1674   -1.7431    4.1180 H         1 <0>         0.1254
     50 H21        -4.7755   -4.0283    4.0990 H         1 <0>         0.0713
     51 H22        -6.4181   -4.0864    3.4158 H         1 <0>         0.0613
     52 H23        -5.1098   -5.0351    2.6698 H         1 <0>         0.0635
     53 H24         1.1512   -1.7049    1.1816 H         1 <0>         0.0585
     54 H25         0.7482   -3.4160    1.4612 H         1 <0>         0.0747
     55 H26         0.8108   -2.7761   -0.1986 H         1 <0>         0.0694
     56 H27        -4.0157    1.4498    1.5432 H         1 <0>         0.0994
     57 H28        -3.2895    2.8363    0.6956 H         1 <0>         0.1095
     58 H29        -4.5668    1.8804   -0.0936 H         1 <0>         0.1077
@<TRIPOS>BOND
     1    1    2 1
     2    1   31 1
     3    1   32 1
     4    1   33 1
     5    2    3 2
     6    2    4 1
     7    4    8 1
     8    4    5 1
     9    4   27 1
    10    5    6 1
    11    5   34 1
    12    5   35 1
    13    6    7 1
    14    6   36 1
    15    6   37 1
    16    7   12 1
    17    7    8 1
    18    7   38 1
    19    8    9 1
    20    8   26 1
    21    9   10 1
    22    9   39 1
    23    9   40 1
    24   10   11 1
    25   10   41 1
    26   10   42 1
    27   11   23 1
    28   11   12 1
    29   11   43 1
    30   12   13 1
    31   12   44 1
    32   13   14 2
    33   13   45 1
    34   14   15 1
    35   14   25 1
    36   15   23 1
    37   15   16 2
    38   16   17 1
    39   16   46 1
    40   17   18 2
    41   17   19 1
    42   19   20 1
    43   19   22 1
    44   19   21 1
    45   21   22 1
    46   21   47 1
    47   21   48 1
    48   22   23 1
    49   22   49 1
    50   23   24 1
    51   24   50 1
    52   24   51 1
    53   24   52 1
    54   26   53 1
    55   26   54 1
    56   26   55 1
    57   27   28 1
    58   28   29 2
    59   28   30 1
    60   30   56 1
    61   30   57 1
    62   30   58 1
@<TRIPOS>MOLECULE
CHEMBL361245__5
   58    62     0     0     0
SMALL
USER_CHARGES

@<TRIPOS>ATOM
      1 C1          0.2122    0.9562    0.4157 C.3       1 <0>        -0.2059
      2 C2         -0.0454   -0.2947   -0.3843 C.2       1 <0>         0.3532
      3 O1          0.7075   -0.6073   -1.2753 O.2       1 <0>        -0.4326
      4 C3         -1.2461   -1.1579   -0.0716 C.3       1 <0>         0.0936
      5 C4         -1.6219   -1.9862   -1.3195 C.3       1 <0>        -0.1397
      6 C5         -1.5154   -3.4728   -0.9193 C.3       1 <0>        -0.1248
      7 C6         -1.6048   -3.4789    0.6286 C.3       1 <0>        -0.0645
      8 C7         -0.8897   -2.1754    1.0109 C.3       1 <0>        -0.0305
      9 C8         -1.1670   -1.7427    2.4273 C.3       1 <0>        -0.0986
     10 C9         -2.6523   -1.7457    2.7694 C.3       1 <0>        -0.1276
     11 C10        -3.2563   -3.1300    2.5149 C.3       1 <0>        -0.0563
     12 C11        -3.0591   -3.5216    1.0586 C.3       1 <0>        -0.0451
     13 C12        -3.9735   -2.8062    0.1253 C.2       1 <0>        -0.0753
     14 C13        -5.0590   -2.1407    0.5159 C.2       1 <0>        -0.0752
     15 C14        -5.4266   -2.1005    1.9414 C.2       1 <0>         0.0416
     16 C15        -6.3533   -1.2085    2.3400 C.2       1 <0>        -0.2363
     17 C16        -6.7879   -1.0817    3.6654 C.2       1 <0>         0.4191
     18 O2         -7.7100   -0.3419    3.9398 O.2       1 <0>        -0.4535
     19 C17        -6.0884   -1.8586    4.7532 C.3       1 <0>        -0.2144
     20 H1         -6.6890   -2.1166    5.6209 H         1 <0>         0.1312
     21 C18        -4.6109   -1.5109    4.9800 C.3       1 <0>        -0.1454
     22 C19        -4.9910   -2.8311    4.3245 C.3       1 <0>        -0.1126
     23 C20        -4.7497   -3.0794    2.8537 C.3       1 <0>         0.0042
     24 C21        -5.3512   -4.4612    2.5561 C.3       1 <0>        -0.1488
     25 Cl1        -6.0410   -1.3253   -0.6609 Cl        1 <0>        -0.0654
     26 C22         0.6298   -2.4379    0.9114 C.3       1 <0>        -0.1627
     27 O3         -2.3410   -0.3310    0.3163 O.3       1 <0>        -0.3185
     28 C23        -2.7433    0.5996   -0.5634 C.2       1 <0>         0.4527
     29 O4         -2.2456    0.6464   -1.6634 O.2       1 <0>        -0.5006
     30 C24        -3.8158    1.5861   -0.1790 C.3       1 <0>        -0.1513
     31 H2          1.1606    1.3961    0.1070 H         1 <0>         0.0882
     32 H3         -0.5929    1.6703    0.2428 H         1 <0>         0.0869
     33 H4          0.2554    0.7070    1.4759 H         1 <0>         0.0961
     34 H5         -2.6268   -1.7389   -1.6494 H         1 <0>         0.0805
     35 H6         -0.9126   -1.7710   -2.1243 H         1 <0>         0.0914
     36 H7         -2.3357   -4.0460   -1.3583 H         1 <0>         0.0756
     37 H8         -0.5637   -3.8905   -1.2572 H         1 <0>         0.0775
     38 H9         -1.0604   -4.3471    1.0450 H         1 <0>         0.0977
     39 H10        -0.6457   -2.4174    3.1131 H         1 <0>         0.0717
     40 H11        -0.7705   -0.7353    2.5796 H         1 <0>         0.0670
     41 H12        -2.7416   -1.5166    3.8409 H         1 <0>         0.0756
     42 H13        -3.1854   -0.9883    2.2081 H         1 <0>         0.0830
     43 H14        -2.7622   -3.8663    3.1607 H         1 <0>         0.0928
     44 H15        -3.3348   -4.5898    0.9862 H         1 <0>         0.0915
     45 H16        -3.7767   -2.8502   -0.9360 H         1 <0>         0.1307
     46 H17        -6.7837   -0.5508    1.5990 H         1 <0>         0.1382
     47 H18        -4.2038   -0.7110    4.3630 H         1 <0>         0.1081
     48 H19        -4.2455   -1.5390    6.0084 H         1 <0>         0.1106
     49 H20        -4.8847   -3.7257    4.9472 H         1 <0>         0.1218
     50 H21        -4.8521   -5.2138    3.1664 H         1 <0>         0.0709
     51 H22        -6.4159   -4.4519    2.7893 H         1 <0>         0.0633
     52 H23        -5.2124   -4.6984    1.5013 H         1 <0>         0.0640
     53 H24         1.1733   -1.5325    1.1816 H         1 <0>         0.0582
     54 H25         0.9047   -3.2436    1.5921 H         1 <0>         0.0735
     55 H26         0.8832   -2.7226   -0.1098 H         1 <0>         0.0701
     56 H27        -4.1409    1.3896    0.8427 H         1 <0>         0.0921
     57 H28        -3.4184    2.5990   -0.2453 H         1 <0>         0.1073
     58 H29        -4.6636    1.4833   -0.8562 H         1 <0>         0.1058
@<TRIPOS>BOND
     1    1    2 1
     2    1   31 1
     3    1   32 1
     4    1   33 1
     5    2    3 2
     6    2    4 1
     7    4    8 1
     8    4    5 1
     9    4   27 1
    10    5    6 1
    11    5   34 1
    12    5   35 1
    13    6    7 1
    14    6   36 1
    15    6   37 1
    16    7   12 1
    17    7    8 1
    18    7   38 1
    19    8    9 1
    20    8   26 1
    21    9   10 1
    22    9   39 1
    23    9   40 1
    24   10   11 1
    25   10   41 1
    26   10   42 1
    27   11   23 1
    28   11   12 1
    29   11   43 1
    30   12   13 1
    31   12   44 1
    32   13   14 2
    33   13   45 1
    34   14   15 1
    35   14   25 1
    36   15   23 1
    37   15   16 2
    38   16   17 1
    39   16   46 1
    40   17   18 2
    41   17   19 1
    42   19   20 1
    43   19   22 1
    44   19   21 1
    45   21   22 1
    46   21   47 1
    47   21   48 1
    48   22   23 1
    49   22   49 1
    50   23   24 1
    51   24   50 1
    52   24   51 1
    53   24   52 1
    54   26   53 1
    55   26   54 1
    56   26   55 1
    57   27   28 1
    58   28   29 2
    59   28   30 1
    60   30   56 1
    61   30   57 1
    62   30   58 1
@<TRIPOS>MOLECULE
CHEMBL361245__6
   58    62     0     0     0
SMALL
USER_CHARGES

@<TRIPOS>ATOM
      1 C1          0.2045    1.0146    0.3956 C.3       1 <0>        -0.2054
      2 C2         -0.0985   -0.2139   -0.4228 C.2       1 <0>         0.3539
      3 O1          0.6039   -0.5023   -1.3618 O.2       1 <0>        -0.4318
      4 C3         -1.2817   -1.0852   -0.0684 C.3       1 <0>         0.0903
      5 C4         -1.7242   -1.8816   -1.3158 C.3       1 <0>        -0.1330
      6 C5         -1.4296   -3.3664   -1.0090 C.3       1 <0>        -0.1278
      7 C6         -1.5236   -3.4480    0.5439 C.3       1 <0>        -0.0691
      8 C7         -0.8680   -2.1258    0.9712 C.3       1 <0>        -0.0255
      9 C8         -1.1572   -1.7550    2.4039 C.3       1 <0>        -0.1021
     10 C9         -2.6340   -1.8069    2.7576 C.3       1 <0>        -0.1036
     11 C10        -3.3032   -3.1002    2.3363 C.3       1 <0>        -0.0616
     12 C11        -3.0031   -3.4923    0.9082 C.3       1 <0>        -0.0361
     13 C12        -3.5612   -4.8464    0.5656 C.2       1 <0>        -0.0921
     14 C13        -4.0288   -5.7040    1.4643 C.2       1 <0>        -0.0654
     15 C14        -4.0374   -5.3703    2.8979 C.2       1 <0>         0.0246
     16 C15        -4.7998   -6.1066    3.7264 C.2       1 <0>        -0.2269
     17 C16        -4.9080   -5.8651    5.1016 C.2       1 <0>         0.4187
     18 O2         -5.4664   -6.6635    5.8241 O.2       1 <0>        -0.4499
     19 C17        -4.3370   -4.5907    5.6715 C.3       1 <0>        -0.2078
     20 H1         -4.0878   -4.6138    6.7308 H         1 <0>         0.1326
     21 C18        -4.8731   -3.2766    5.0922 C.3       1 <0>        -0.1449
     22 C19        -3.4623   -3.7494    4.7487 C.3       1 <0>        -0.1167
     23 C20        -3.1654   -4.2274    3.3407 C.3       1 <0>         0.0150
     24 C21        -1.7302   -4.7541    3.3622 C.3       1 <0>        -0.1513
     25 Cl1        -4.6384   -7.2429    0.9382 Cl        1 <0>        -0.0633
     26 C22         0.6598   -2.3118    0.8552 C.3       1 <0>        -0.1662
     27 O3         -2.3548   -0.2692    0.3977 O.3       1 <0>        -0.3237
     28 C23        -2.8197    0.6661   -0.4454 C.2       1 <0>         0.4491
     29 O4         -2.3713    0.7474   -1.5644 O.2       1 <0>        -0.4995
     30 C24        -3.9011    1.6148    0.0037 C.3       1 <0>        -0.1490
     31 H2          1.1268    1.4717    0.0370 H         1 <0>         0.0881
     32 H3         -0.6152    1.7266    0.2994 H         1 <0>         0.0868
     33 H4          0.3211    0.7341    1.4425 H         1 <0>         0.0964
     34 H5         -2.7889   -1.7371   -1.4935 H         1 <0>         0.0762
     35 H6         -1.1510   -1.5584   -2.1849 H         1 <0>         0.0921
     36 H7         -2.1844   -4.0053   -1.4717 H         1 <0>         0.0754
     37 H8         -0.4376   -3.6463   -1.3583 H         1 <0>         0.0782
     38 H9         -0.9710   -4.3143    0.9191 H         1 <0>         0.0997
     39 H10        -0.5841   -2.3981    3.0720 H         1 <0>         0.0758
     40 H11        -0.7983   -0.7273    2.5707 H         1 <0>         0.0655
     41 H12        -2.7400   -1.6897    3.8465 H         1 <0>         0.0720
     42 H13        -3.1601   -0.9624    2.3018 H         1 <0>         0.0812
     43 H14        -4.4008   -2.8571    2.3365 H         1 <0>         0.0649
     44 H15        -3.5224   -2.7617    0.2529 H         1 <0>         0.0940
     45 H16        -3.5883   -5.1403   -0.4765 H         1 <0>         0.1302
     46 H17        -5.3607   -6.9307    3.3105 H         1 <0>         0.1396
     47 H18        -5.6341   -3.3450    4.3151 H         1 <0>         0.1008
     48 H19        -4.9719   -2.4317    5.7736 H         1 <0>         0.1112
     49 H20        -2.6415   -3.2096    5.2218 H         1 <0>         0.1244
     50 H21        -1.0514   -3.9478    3.6400 H         1 <0>         0.0755
     51 H22        -1.6507   -5.5626    4.0889 H         1 <0>         0.0602
     52 H23        -1.4654   -5.1275    2.3730 H         1 <0>         0.0664
     53 H24         1.1617   -1.3926    1.1572 H         1 <0>         0.0603
     54 H25         0.9766   -3.1287    1.5037 H         1 <0>         0.0743
     55 H26         0.9200   -2.5456   -0.1771 H         1 <0>         0.0712
     56 H27        -4.1765    1.3902    1.0342 H         1 <0>         0.0938
     57 H28        -3.5347    2.6394   -0.0593 H         1 <0>         0.1071
     58 H29        -4.7742    1.5009   -0.6388 H         1 <0>         0.1069
@<TRIPOS>BOND
     1    1    2 1
     2    1   31 1
     3    1   32 1
     4    1   33 1
     5    2    3 2
     6    2    4 1
     7    4    8 1
     8    4    5 1
     9    4   27 1
    10    5    6 1
    11    5   34 1
    12    5   35 1
    13    6    7 1
    14    6   36 1
    15    6   37 1
    16    7   12 1
    17    7    8 1
    18    7   38 1
    19    8    9 1
    20    8   26 1
    21    9   10 1
    22    9   39 1
    23    9   40 1
    24   10   11 1
    25   10   41 1
    26   10   42 1
    27   11   23 1
    28   11   12 1
    29   11   43 1
    30   12   13 1
    31   12   44 1
    32   13   14 2
    33   13   45 1
    34   14   15 1
    35   14   25 1
    36   15   23 1
    37   15   16 2
    38   16   17 1
    39   16   46 1
    40   17   18 2
    41   17   19 1
    42   19   20 1
    43   19   22 1
    44   19   21 1
    45   21   22 1
    46   21   47 1
    47   21   48 1
    48   22   23 1
    49   22   49 1
    50   23   24 1
    51   24   50 1
    52   24   51 1
    53   24   52 1
    54   26   53 1
    55   26   54 1
    56   26   55 1
    57   27   28 1
    58   28   29 2
    59   28   30 1
    60   30   56 1
    61   30   57 1
    62   30   58 1
@<TRIPOS>MOLECULE
CHEMBL361245__7
   58    62     0     0     0
SMALL
USER_CHARGES

@<TRIPOS>ATOM
      1 C1          0.3207    1.0633    0.7863 C.3       1 <0>        -0.2085
      2 C2          0.0484   -0.0755   -0.1624 C.2       1 <0>         0.3543
      3 O1          0.8328   -0.3262   -1.0457 O.2       1 <0>        -0.4332
      4 C3         -1.2026   -0.9015   -0.0088 C.3       1 <0>         0.0788
      5 C4         -1.6372   -1.4623   -1.3756 C.3       1 <0>        -0.1302
      6 C5         -1.5633   -3.0025   -1.2644 C.3       1 <0>        -0.1169
      7 C6         -0.5622   -3.2320   -0.1170 C.3       1 <0>        -0.0726
      8 C7         -0.9224   -2.1297    0.8977 C.3       1 <0>        -0.0267
      9 C8         -2.2319   -2.4518    1.6194 C.3       1 <0>        -0.0997
     10 C9         -2.1963   -3.8474    2.2400 C.3       1 <0>        -0.1138
     11 C10        -2.0135   -4.8654    1.1121 C.3       1 <0>        -0.0672
     12 C11        -0.6525   -4.6181    0.4664 C.3       1 <0>        -0.0468
     13 C12        -0.3134   -5.6853   -0.5241 C.2       1 <0>        -0.0849
     14 C13        -0.8671   -6.8964   -0.5068 C.2       1 <0>        -0.0686
     15 C14        -1.8787   -7.2384    0.5080 C.2       1 <0>         0.0270
     16 C15        -2.5896   -8.3713    0.3549 C.2       1 <0>        -0.2274
     17 C16        -3.6373   -8.7495    1.2037 C.2       1 <0>         0.4168
     18 O2         -4.1741   -9.8303    1.0652 O.2       1 <0>        -0.4512
     19 C17        -4.0963   -7.8103    2.2907 C.3       1 <0>        -0.2030
     20 H1         -4.5300   -8.2840    3.1714 H         1 <0>         0.1324
     21 C18        -4.6767   -6.4638    1.8495 C.3       1 <0>        -0.1439
     22 C19        -3.2757   -6.5408    2.5008 C.3       1 <0>        -0.1194
     23 C20        -2.0478   -6.2906    1.6591 C.3       1 <0>         0.0060
     24 C21        -0.8367   -6.4597    2.5787 C.3       1 <0>        -0.1511
     25 Cl1        -0.3946   -8.0784   -1.6870 Cl        1 <0>        -0.0591
     26 C22         0.2270   -1.8636    1.8719 C.3       1 <0>        -0.1543
     27 O3         -2.2493   -0.1064    0.5519 O.3       1 <0>        -0.3276
     28 C23        -2.6497    0.9612   -0.1562 C.2       1 <0>         0.4512
     29 O4         -2.1770    1.1740   -1.2477 O.2       1 <0>        -0.5012
     30 C24        -3.6886    1.8945    0.4099 C.3       1 <0>        -0.1487
     31 H2          1.3025    1.4863    0.5739 H         1 <0>         0.0885
     32 H3         -0.4414    1.8322    0.6592 H         1 <0>         0.0865
     33 H4          0.2978    0.6951    1.8120 H         1 <0>         0.0993
     34 H5         -2.6582   -1.1525   -1.5988 H         1 <0>         0.0769
     35 H6         -0.9612   -1.1113   -2.1553 H         1 <0>         0.0900
     36 H7         -2.5393   -3.4163   -1.0109 H         1 <0>         0.0756
     37 H8         -1.1903   -3.4368   -2.1920 H         1 <0>         0.0762
     38 H9          0.4509   -3.0546   -0.4779 H         1 <0>         0.0856
     39 H10        -2.3960   -1.7156    2.4063 H         1 <0>         0.0772
     40 H11        -3.0545   -2.3994    0.9062 H         1 <0>         0.0718
     41 H12        -1.3626   -3.9183    2.9385 H         1 <0>         0.0725
     42 H13        -3.1328   -4.0416    2.7628 H         1 <0>         0.0790
     43 H14        -2.8047   -4.7383    0.3732 H         1 <0>         0.0852
     44 H15         0.0930   -4.6806    1.2591 H         1 <0>         0.0992
     45 H16         0.4148   -5.4635   -1.2901 H         1 <0>         0.1312
     46 H17        -2.3380   -9.0245   -0.4675 H         1 <0>         0.1402
     47 H18        -4.7308   -6.2653    0.7791 H         1 <0>         0.1008
     48 H19        -5.4854   -6.0438    2.4475 H         1 <0>         0.1116
     49 H20        -3.2028   -6.1775    3.5259 H         1 <0>         0.1246
     50 H21        -0.8954   -5.7377    3.3932 H         1 <0>         0.0746
     51 H22        -0.8298   -7.4698    2.9884 H         1 <0>         0.0632
     52 H23         0.0778   -6.2921    2.0097 H         1 <0>         0.0659
     53 H24        -0.0246   -1.0147    2.5076 H         1 <0>         0.0703
     54 H25         0.3899   -2.7457    2.4912 H         1 <0>         0.0749
     55 H26         1.1346   -1.6409    1.3108 H         1 <0>         0.0604
     56 H27        -3.9943    1.5431    1.3954 H         1 <0>         0.0940
     57 H28        -3.2687    2.8967    0.4957 H         1 <0>         0.1073
     58 H29        -4.5545    1.9187   -0.2518 H         1 <0>         0.1073
@<TRIPOS>BOND
     1    1    2 1
     2    1   31 1
     3    1   32 1
     4    1   33 1
     5    2    3 2
     6    2    4 1
     7    4    8 1
     8    4    5 1
     9    4   27 1
    10    5    6 1
    11    5   34 1
    12    5   35 1
    13    6    7 1
    14    6   36 1
    15    6   37 1
    16    7   12 1
    17    7    8 1
    18    7   38 1
    19    8    9 1
    20    8   26 1
    21    9   10 1
    22    9   39 1
    23    9   40 1
    24   10   11 1
    25   10   41 1
    26   10   42 1
    27   11   23 1
    28   11   12 1
    29   11   43 1
    30   12   13 1
    31   12   44 1
    32   13   14 2
    33   13   45 1
    34   14   15 1
    35   14   25 1
    36   15   23 1
    37   15   16 2
    38   16   17 1
    39   16   46 1
    40   17   18 2
    41   17   19 1
    42   19   20 1
    43   19   22 1
    44   19   21 1
    45   21   22 1
    46   21   47 1
    47   21   48 1
    48   22   23 1
    49   22   49 1
    50   23   24 1
    51   24   50 1
    52   24   51 1
    53   24   52 1
    54   26   53 1
    55   26   54 1
    56   26   55 1
    57   27   28 1
    58   28   29 2
    59   28   30 1
    60   30   56 1
    61   30   57 1
    62   30   58 1
@<TRIPOS>MOLECULE
CHEMBL266786
   50    52     0     0     0
SMALL
USER_CHARGES

@<TRIPOS>ATOM
      1 C1          0.0037    1.5359    0.0321 C.3       1 <0>        -0.1483
      2 C2          0.0090    0.0062    0.0024 C.3       1 <0>         0.1222
      3 C3          0.8410   -0.5018   -1.1584 C.2       1 <0>         0.5278
      4 O1          0.6482   -0.3048   -2.3389 O.2       1 <0>        -0.4370
      5 N1          1.8399   -1.2175   -0.6050 N.am      1 <0>        -0.5229
      6 C4          1.7556   -1.2320    0.7302 C.2       1 <0>         0.7034
      7 O2          2.5438   -1.8125    1.4505 O.2       1 <0>        -0.5216
      8 N2          0.7007   -0.5328    1.1861 N.am      1 <0>        -0.6075
      9 C5          0.3153   -0.3437    2.5868 C.3       1 <0>         0.1482
     10 C6         -0.6347   -1.4658    3.0103 C.3       1 <0>        -0.1383
     11 C7         -1.0373   -1.2683    4.4731 C.3       1 <0>        -0.0803
     12 C8         -1.9730   -2.3735    4.8902 C.ar      1 <0>        -0.0642
     13 C9         -3.3376   -2.2212    4.7294 C.ar      1 <0>        -0.1127
     14 C10        -4.1961   -3.2348    5.1119 C.ar      1 <0>        -0.0830
     15 C11        -3.6898   -4.4013    5.6554 C.ar      1 <0>        -0.1023
     16 C12        -2.3247   -4.5534    5.8162 C.ar      1 <0>        -0.0823
     17 C13        -1.4663   -3.5418    5.4283 C.ar      1 <0>        -0.1113
     18 I1         -4.9906   -5.9375    6.2359 I         1 <0>        -0.0430
     19 C14         2.8408   -1.8656   -1.3363 C.ar      1 <0>         0.1639
     20 C15         3.8981   -2.4782   -0.6727 C.ar      1 <0>        -0.1049
     21 C16         4.8854   -3.1173   -1.3891 C.ar      1 <0>        -0.0468
     22 C17         4.8234   -3.1500   -2.7850 C.ar      1 <0>         0.0175
     23 C18         3.7591   -2.5336   -3.4482 C.ar      1 <0>        -0.1206
     24 C19         2.7729   -1.9005   -2.7244 C.ar      1 <0>        -0.0954
     25 C20         3.6878   -2.5656   -4.9532 C.3       1 <0>         0.5068
     26 F1          2.5413   -1.8872   -5.3803 F         1 <0>        -0.1660
     27 F2          4.8226   -1.9455   -5.4871 F         1 <0>        -0.1686
     28 F3          3.6334   -3.8938   -5.3894 F         1 <0>        -0.1687
     29 C21         5.8483   -3.8131   -3.5337 C.1       1 <0>         0.2305
     30 N3          6.6614   -4.3392   -4.1276 N.1       1 <0>        -0.3715
     31 C22        -1.4202   -0.5340   -0.0783 C.3       1 <0>        -0.1492
     32 H1          1.0301    1.9027    0.0389 H         1 <0>         0.0696
     33 H2         -0.5117    1.9146   -0.8505 H         1 <0>         0.0896
     34 H3         -0.5110    1.8801    0.9291 H         1 <0>         0.0849
     35 H4          1.2059   -0.3653    3.2149 H         1 <0>         0.0966
     36 H5         -0.1854    0.6180    2.6992 H         1 <0>         0.0936
     37 H6         -1.5254   -1.4442    2.3822 H         1 <0>         0.0740
     38 H7         -0.1341   -2.4275    2.8979 H         1 <0>         0.0741
     39 H8         -0.1467   -1.2899    5.1011 H         1 <0>         0.0810
     40 H9         -1.5379   -0.3066    4.5855 H         1 <0>         0.0801
     41 H10        -3.7329   -1.3101    4.3053 H         1 <0>         0.1304
     42 H11        -5.2621   -3.1156    4.9866 H         1 <0>         0.1292
     43 H12        -1.9290   -5.4643    6.2406 H         1 <0>         0.1294
     44 H13        -0.3999   -3.6624    5.5494 H         1 <0>         0.1312
     45 H14         3.9453   -2.4525    0.4060 H         1 <0>         0.1834
     46 H15         5.7067   -3.5922   -0.8730 H         1 <0>         0.1576
     47 H16         1.9478   -1.4274   -3.2360 H         1 <0>         0.1771
     48 H17        -1.9018   -0.1542   -0.9793 H         1 <0>         0.0887
     49 H18        -1.3956   -1.6232   -0.1109 H         1 <0>         0.0695
     50 H19        -1.9813   -0.2094    0.7980 H         1 <0>         0.0860
@<TRIPOS>BOND
     1    1    2 1
     2    1   32 1
     3    1   33 1
     4    1   34 1
     5    2    8 1
     6    2    3 1
     7    2   31 1
     8    3    4 2
     9    3    5 am
    10    5    6 am
    11    5   19 1
    12    6    7 2
    13    6    8 am
    14    8    9 1
    15    9   10 1
    16    9   35 1
    17    9   36 1
    18   10   11 1
    19   10   37 1
    20   10   38 1
    21   11   12 1
    22   11   39 1
    23   11   40 1
    24   12   17 ar
    25   12   13 ar
    26   13   14 ar
    27   13   41 1
    28   14   15 ar
    29   14   42 1
    30   15   16 ar
    31   15   18 1
    32   16   17 ar
    33   16   43 1
    34   17   44 1
    35   19   24 ar
    36   19   20 ar
    37   20   21 ar
    38   20   45 1
    39   21   22 ar
    40   21   46 1
    41   22   23 ar
    42   22   29 1
    43   23   24 ar
    44   23   25 1
    45   24   47 1
    46   25   26 1
    47   25   27 1
    48   25   28 1
    49   29   30 3
    50   31   48 1
    51   31   49 1
    52   31   50 1
@<TRIPOS>MOLECULE
CHEMBL519450
   64    67     0     0     0
SMALL
USER_CHARGES

@<TRIPOS>ATOM
      1 C1          2.3777    0.4234   -0.5474 C.3       1 <0>        -0.1158
      2 C2          1.2340   -0.5050   -0.2292 C.ar      1 <0>        -0.0604
      3 C3          0.1907   -0.6480   -1.1257 C.ar      1 <0>        -0.1409
      4 C4         -0.8609   -1.4988   -0.8378 C.ar      1 <0>        -0.0621
      5 C5         -0.8724   -2.2089    0.3465 C.ar      1 <0>        -0.1476
      6 C6          0.1744   -2.0680    1.2493 C.ar      1 <0>         0.1958
      7 C7          1.2319   -1.2162    0.9544 C.ar      1 <0>        -0.1519
      8 N1          0.1661   -2.7844    2.4479 N.pl3     1 <0>        -0.5685
      9 C8          0.2858   -2.0768    3.7251 C.3       1 <0>         0.1372
     10 C9         -1.1082   -1.7051    4.2347 C.3       1 <0>        -0.1046
     11 C10        -1.7513   -0.7020    3.2749 C.3       1 <0>        -0.1130
     12 C11        -3.1452   -0.3303    3.7846 C.3       1 <0>        -0.1181
     13 C12        -3.0293    0.2969    5.1753 C.3       1 <0>        -0.1200
     14 C13        -2.3861   -0.7062    6.1351 C.3       1 <0>        -0.1177
     15 C14        -0.9922   -1.0779    5.6254 C.3       1 <0>        -0.1128
     16 C15         0.0428   -4.1859    2.4290 C.2       1 <0>         0.1129
     17 C16         0.0282   -4.9990    1.2868 C.2       1 <0>        -0.1851
     18 C17        -0.1090   -6.3020    1.7177 C.2       1 <0>        -0.0249
     19 N2         -0.1764   -6.2825    3.0919 N.pl3     1 <0>        -0.4034
     20 C18        -0.0776   -4.9943    3.5148 C.2       1 <0>        -0.0409
     21 C19        -0.3240   -7.4561    3.9563 C.3       1 <0>         0.0720
     22 C20        -0.1721   -7.4934    0.8650 C.2       1 <0>         0.6043
     23 O1         -0.3751   -8.5863    1.3605 O.2       1 <0>        -0.5488
     24 N3         -0.0054   -7.3780   -0.4674 N.am      1 <0>        -0.6077
     25 C21         0.3274   -6.1389   -1.1852 C.3       1 <0>         0.0944
     26 C22         0.3905   -6.4829   -2.6883 C.3       1 <0>        -0.1345
     27 C23        -0.4655   -7.7733   -2.7857 C.3       1 <0>        -0.1341
     28 C24        -0.1203   -8.4748   -1.4459 C.3       1 <0>         0.1082
     29 C25        -1.9957   -1.6510   -1.8176 C.3       1 <0>        -0.1157
     30 H1          3.1508   -0.1240   -1.0866 H         1 <0>         0.0708
     31 H2          2.0170    1.2459   -1.1650 H         1 <0>         0.0668
     32 H3          2.7925    0.8198    0.3794 H         1 <0>         0.0651
     33 H4          0.1970   -0.0937   -2.0525 H         1 <0>         0.1194
     34 H5         -1.6942   -2.8726    0.5710 H         1 <0>         0.1206
     35 H6          2.0490   -1.1071    1.6522 H         1 <0>         0.1192
     36 H7          0.7787   -2.7214    4.4528 H         1 <0>         0.0724
     37 H8          0.8749   -1.1706    3.5846 H         1 <0>         0.0741
     38 H9         -1.7256   -2.6016    4.2907 H         1 <0>         0.0727
     39 H10        -1.1339    0.1945    3.2189 H         1 <0>         0.0568
     40 H11        -1.8339   -1.1488    2.2842 H         1 <0>         0.0703
     41 H12        -3.6035    0.3843    3.1008 H         1 <0>         0.0587
     42 H13        -3.7627   -1.2268    3.8406 H         1 <0>         0.0582
     43 H14        -2.4119    1.1934    5.1193 H         1 <0>         0.0603
     44 H15        -4.0224    0.5617    5.5384 H         1 <0>         0.0589
     45 H16        -2.3036   -0.2594    7.1259 H         1 <0>         0.0608
     46 H17        -3.0036   -1.6027    6.1911 H         1 <0>         0.0600
     47 H18        -0.5340   -1.7925    6.3092 H         1 <0>         0.0608
     48 H19        -0.3748   -0.1814    5.5694 H         1 <0>         0.0625
     49 H20         0.1089   -4.6673    0.2622 H         1 <0>         0.1564
     50 H21        -0.0947   -4.6670    4.5438 H         1 <0>         0.1656
     51 H22         0.6566   -7.8917    4.1480 H         1 <0>         0.0748
     52 H23        -0.7795   -7.1570    4.9003 H         1 <0>         0.0831
     53 H24        -0.9589   -8.1926    3.4638 H         1 <0>         0.1000
     54 H25        -0.4442   -5.3895   -1.0085 H         1 <0>         0.0785
     55 H26         1.2945   -5.7644   -0.8497 H         1 <0>         0.0743
     56 H27        -0.0477   -5.6833   -3.2856 H         1 <0>         0.0852
     57 H28         1.4178   -6.6773   -2.9966 H         1 <0>         0.0786
     58 H29        -1.5274   -7.5342   -2.8433 H         1 <0>         0.0780
     59 H30        -0.1574   -8.3833   -3.6348 H         1 <0>         0.0871
     60 H31         0.8254   -9.0105   -1.5281 H         1 <0>         0.0710
     61 H32        -0.9201   -9.1573   -1.1585 H         1 <0>         0.0803
     62 H33        -1.7700   -2.4600   -2.5124 H         1 <0>         0.0705
     63 H34        -2.9138   -1.8817   -1.2772 H         1 <0>         0.0652
     64 H35        -2.1243   -0.7213   -2.3719 H         1 <0>         0.0666
@<TRIPOS>BOND
     1    1    2 1
     2    1   30 1
     3    1   31 1
     4    1   32 1
     5    2    7 ar
     6    2    3 ar
     7    3    4 ar
     8    3   33 1
     9    4    5 ar
    10    4   29 1
    11    5    6 ar
    12    5   34 1
    13    6    7 ar
    14    6    8 1
    15    7   35 1
    16    8    9 1
    17    8   16 1
    18    9   10 1
    19    9   36 1
    20    9   37 1
    21   10   15 1
    22   10   11 1
    23   10   38 1
    24   11   12 1
    25   11   39 1
    26   11   40 1
    27   12   13 1
    28   12   41 1
    29   12   42 1
    30   13   14 1
    31   13   43 1
    32   13   44 1
    33   14   15 1
    34   14   45 1
    35   14   46 1
    36   15   47 1
    37   15   48 1
    38   16   20 2
    39   16   17 1
    40   17   18 2
    41   17   49 1
    42   18   19 1
    43   18   22 1
    44   19   20 1
    45   19   21 1
    46   20   50 1
    47   21   51 1
    48   21   52 1
    49   21   53 1
    50   22   23 2
    51   22   24 am
    52   24   28 1
    53   24   25 1
    54   25   26 1
    55   25   54 1
    56   25   55 1
    57   26   27 1
    58   26   56 1
    59   26   57 1
    60   27   28 1
    61   27   58 1
    62   27   59 1
    63   28   60 1
    64   28   61 1
    65   29   62 1
    66   29   63 1
    67   29   64 1
@<TRIPOS>MOLECULE
CHEMBL227749
   35    38     0     0     0
SMALL
USER_CHARGES

@<TRIPOS>ATOM
      1 C1         -0.0165    1.3675    0.0096 C.ar      1 <0>        -0.1010
      2 C2          1.1958    2.0722    0.0018 C.ar      1 <0>        -0.0997
      3 C3          1.2184    3.5338    0.0109 C.2       1 <0>        -0.0795
      4 C4          2.4209    4.1641    0.0050 C.2       1 <0>        -0.1407
      5 C5          3.6145    3.4149   -0.0097 C.2       1 <0>         0.5375
      6 O1          4.6836    4.0010   -0.0138 O.2       1 <0>        -0.5239
      7 N1          3.6047    2.0708   -0.0188 N.am      1 <0>        -0.6182
      8 H1          4.4453    1.5869   -0.0282 H         1 <0>         0.4213
      9 C6          2.4157    1.3684   -0.0146 C.ar      1 <0>         0.1857
     10 C7          2.4130   -0.0209   -0.0280 C.ar      1 <0>        -0.1586
     11 C8          1.2162   -0.7149   -0.0225 C.ar      1 <0>         0.1378
     12 C9          0.0021   -0.0041    0.0020 C.ar      1 <0>         0.1497
     13 N2         -1.1726   -0.7632    0.0331 N.pl3     1 <0>        -0.6419
     14 C10        -2.5095   -0.3955    0.4932 C.3       1 <0>         0.1226
     15 C11        -3.4360   -1.5717    0.0939 C.3       1 <0>        -0.1295
     16 C12        -2.4714   -2.7882    0.1874 C.3       1 <0>        -0.1248
     17 C13        -1.1597   -2.1940   -0.3510 C.3       1 <0>         0.0979
     18 H2         -1.0982   -2.3063   -1.4334 H         1 <0>         0.0904
     19 C14         0.0619   -2.8044    0.3429 C.3       1 <0>         0.0546
     20 O2          1.2260   -2.0716   -0.0490 O.3       1 <0>        -0.3088
     21 C15        -0.0649    4.3236    0.0260 C.3       1 <0>         0.5092
     22 F1          0.2293    5.6913    0.0324 F         1 <0>        -0.1679
     23 F2         -0.8167    4.0137   -1.1124 F         1 <0>        -0.1670
     24 F3         -0.7987    3.9991    1.1721 F         1 <0>        -0.1676
     25 H3         -0.9562    1.8997    0.0259 H         1 <0>         0.1378
     26 H4          2.4629    5.2433    0.0111 H         1 <0>         0.1716
     27 H5          3.3483   -0.5608   -0.0431 H         1 <0>         0.1493
     28 H6         -2.5119   -0.2663    1.5755 H         1 <0>         0.0608
     29 H7         -2.8358    0.5223    0.0041 H         1 <0>         0.0682
     30 H8         -4.2612   -1.6740    0.7988 H         1 <0>         0.0891
     31 H9         -3.8077   -1.4467   -0.9231 H         1 <0>         0.0803
     32 H10        -2.3557   -3.1154    1.2207 H         1 <0>         0.0816
     33 H11        -2.8156   -3.6079   -0.4432 H         1 <0>         0.0905
     34 H12        -0.0622   -2.7415    1.4240 H         1 <0>         0.0731
     35 H13         0.1686   -3.8474    0.0449 H         1 <0>         0.1201
@<TRIPOS>BOND
     1    1   12 ar
     2    1    2 ar
     3    1   25 1
     4    2    9 ar
     5    2    3 1
     6    3    4 2
     7    3   21 1
     8    4    5 1
     9    4   26 1
    10    5    6 2
    11    5    7 am
    12    7    8 1
    13    7    9 1
    14    9   10 ar
    15   10   11 ar
    16   10   27 1
    17   11   20 1
    18   11   12 ar
    19   12   13 1
    20   13   17 1
    21   13   14 1
    22   14   15 1
    23   14   28 1
    24   14   29 1
    25   15   16 1
    26   15   30 1
    27   15   31 1
    28   16   17 1
    29   16   32 1
    30   16   33 1
    31   17   18 1
    32   17   19 1
    33   19   20 1
    34   19   34 1
    35   19   35 1
    36   21   22 1
    37   21   23 1
    38   21   24 1
@<TRIPOS>MOLECULE
CHEMBL403213
   37    40     0     0     0
SMALL
USER_CHARGES

@<TRIPOS>ATOM
      1 C1         -0.0121    1.5063    0.0731 C.3       1 <0>        -0.1294
      2 C2          0.0076   -0.0230    0.0337 C.3       1 <0>         0.1057
      3 C3         -1.3886   -0.7101    0.1137 C.3       1 <0>        -0.1392
      4 C4         -1.0421   -2.1328    0.6221 C.3       1 <0>        -0.1394
      5 C5          0.5083   -2.0786    0.7677 C.3       1 <0>         0.1052
      6 O1          0.7124   -0.6763    1.1393 O.3       1 <0>        -0.3588
      7 C6          1.0606   -2.0933   -0.6883 C.3       1 <0>        -0.1415
      8 H1          0.6448   -2.8919   -1.3028 H         1 <0>         0.1571
      9 C7          0.7249   -0.6487   -1.1989 C.3       1 <0>        -0.1437
     10 H2          0.1184   -0.6414   -2.1046 H         1 <0>         0.1550
     11 C8          2.0758    0.0115   -1.3534 C.2       1 <0>         0.5441
     12 O2          2.2596    1.1493   -1.7291 O.2       1 <0>        -0.4562
     13 N1          3.0372   -0.8532   -1.0108 N.am      1 <0>        -0.5231
     14 C9          2.5709   -2.1046   -0.6277 C.2       1 <0>         0.5468
     15 O3          3.2502   -3.0470   -0.2815 O.2       1 <0>        -0.4352
     16 C10         4.3972   -0.5274   -1.0518 C.ar      1 <0>         0.1127
     17 C11         4.8132    0.6942   -1.5759 C.ar      1 <0>        -0.0905
     18 C12         6.1684    0.9755   -1.5970 C.ar      1 <0>        -0.0243
     19 C13         7.0663    0.0302   -1.0949 C.ar      1 <0>         0.1931
     20 N2          6.6298   -1.1242   -0.6030 N.ar      1 <0>        -0.4080
     21 C14         5.3492   -1.4181   -0.5639 C.ar      1 <0>         0.0979
     22 C15         8.4710    0.3081   -1.1111 C.1       1 <0>         0.2581
     23 N3          9.5854    0.5286   -1.1239 N.1       1 <0>        -0.3607
     24 Cl1         6.7444    2.4820   -2.2390 Cl        1 <0>        -0.0179
     25 C16         1.1128   -3.1107    1.7217 C.3       1 <0>        -0.1298
     26 H3          1.0107    1.8831    0.0680 H         1 <0>         0.0736
     27 H4         -0.5433    1.8855   -0.7999 H         1 <0>         0.0868
     28 H5         -0.5177    1.8399    0.9793 H         1 <0>         0.0777
     29 H6         -2.0335   -0.1927    0.8239 H         1 <0>         0.0886
     30 H7         -1.8541   -0.7546   -0.8709 H         1 <0>         0.0868
     31 H8         -1.5140   -2.3241    1.5859 H         1 <0>         0.0888
     32 H9         -1.3352   -2.8862   -0.1090 H         1 <0>         0.0870
     33 H10         4.0952    1.4052   -1.9573 H         1 <0>         0.1914
     34 H11         5.0319   -2.3647   -0.1520 H         1 <0>         0.2009
     35 H12         0.8947   -4.1144    1.3568 H         1 <0>         0.0877
     36 H13         2.1924   -2.9695    1.7731 H         1 <0>         0.0729
     37 H14         0.6821   -2.9836    2.7149 H         1 <0>         0.0797
@<TRIPOS>BOND
     1    1    2 1
     2    1   26 1
     3    1   27 1
     4    1   28 1
     5    2    6 1
     6    2    9 1
     7    2    3 1
     8    3    4 1
     9    3   29 1
    10    3   30 1
    11    4    5 1
    12    4   31 1
    13    4   32 1
    14    5    6 1
    15    5    7 1
    16    5   25 1
    17    7    8 1
    18    7   14 1
    19    7    9 1
    20    9   10 1
    21    9   11 1
    22   11   12 2
    23   11   13 am
    24   13   14 am
    25   13   16 1
    26   14   15 2
    27   16   21 ar
    28   16   17 ar
    29   17   18 ar
    30   17   33 1
    31   18   19 ar
    32   18   24 1
    33   19   20 ar
    34   19   22 1
    35   20   21 ar
    36   21   34 1
    37   22   23 3
    38   25   35 1
    39   25   36 1
    40   25   37 1
@<TRIPOS>MOLECULE
CHEMBL403213__1
   37    40     0     0     0
SMALL
USER_CHARGES

@<TRIPOS>ATOM
      1 C1         -0.6105    1.7121    0.0916 C.3       1 <0>        -0.1262
      2 C2         -0.3090    0.2156   -0.0105 C.3       1 <0>         0.1127
      3 C3          0.4559   -0.2245   -1.2946 C.3       1 <0>        -0.1587
      4 C4          1.0967   -1.5698   -0.8678 C.3       1 <0>        -0.1596
      5 C5          0.6171   -1.7278    0.6062 C.3       1 <0>         0.1134
      6 O1          0.5554   -0.3296    1.0391 O.3       1 <0>        -0.3429
      7 C6         -0.8954   -2.0865    0.5125 C.3       1 <0>        -0.1493
      8 H1         -1.3038   -2.4930    1.4378 H         1 <0>         0.1512
      9 C7         -1.5477   -0.7225    0.0947 C.3       1 <0>        -0.1399
     10 H2         -2.3135   -0.3561    0.7784 H         1 <0>         0.1540
     11 C8         -2.0509   -1.0102   -1.3012 C.2       1 <0>         0.5443
     12 O2         -2.6198   -0.2148   -2.0177 O.2       1 <0>        -0.4550
     13 N1         -1.7710   -2.2777   -1.6244 N.am      1 <0>        -0.5380
     14 C9         -1.1010   -2.9876   -0.6835 C.2       1 <0>         0.5479
     15 O3         -0.7456   -4.1442   -0.7573 O.2       1 <0>        -0.4443
     16 C10        -2.1165   -2.8374   -2.8593 C.ar      1 <0>         0.0937
     17 C11        -1.5020   -2.3965   -4.0288 C.ar      1 <0>        -0.0466
     18 C12        -1.8741   -2.9779   -5.2287 C.ar      1 <0>        -0.0360
     19 C13        -2.8471   -3.9804   -5.2250 C.ar      1 <0>         0.2232
     20 N2         -3.4102   -4.3735   -4.0876 N.ar      1 <0>        -0.4171
     21 C14        -3.0742   -3.8451   -2.9319 C.ar      1 <0>         0.1413
     22 C15        -3.2418   -4.5900   -6.4592 C.1       1 <0>         0.2530
     23 N3         -3.5549   -5.0736   -7.4383 N.1       1 <0>        -0.3498
     24 Cl1        -1.1422   -2.4678   -6.7179 Cl        1 <0>        -0.0141
     25 C16         1.4701   -2.6529    1.4766 C.3       1 <0>        -0.1254
     26 H3          0.3202    2.2756    0.0252 H         1 <0>         0.0779
     27 H4         -1.2721    2.0059   -0.7234 H         1 <0>         0.0858
     28 H5         -1.0944    1.9210    1.0457 H         1 <0>         0.0772
     29 H6         -0.2354   -0.3720   -2.1244 H         1 <0>         0.0734
     30 H7          1.2240    0.5037   -1.5553 H         1 <0>         0.0970
     31 H8          0.7246   -2.3877   -1.4848 H         1 <0>         0.0745
     32 H9          2.1841   -1.5120   -0.9161 H         1 <0>         0.0966
     33 H10        -0.7529   -1.6190   -4.0003 H         1 <0>         0.1623
     34 H11        -3.5503   -4.1941   -2.0275 H         1 <0>         0.1820
     35 H12         2.4962   -2.2862    1.4995 H         1 <0>         0.0785
     36 H13         1.0681   -2.6714    2.4896 H         1 <0>         0.0772
     37 H14         1.4535   -3.6604    1.0607 H         1 <0>         0.0856
@<TRIPOS>BOND
     1    1    2 1
     2    1   26 1
     3    1   27 1
     4    1   28 1
     5    2    6 1
     6    2    9 1
     7    2    3 1
     8    3    4 1
     9    3   29 1
    10    3   30 1
    11    4    5 1
    12    4   31 1
    13    4   32 1
    14    5    6 1
    15    5    7 1
    16    5   25 1
    17    7    8 1
    18    7   14 1
    19    7    9 1
    20    9   10 1
    21    9   11 1
    22   11   12 2
    23   11   13 am
    24   13   14 am
    25   13   16 1
    26   14   15 2
    27   16   21 ar
    28   16   17 ar
    29   17   18 ar
    30   17   33 1
    31   18   19 ar
    32   18   24 1
    33   19   20 ar
    34   19   22 1
    35   20   21 ar
    36   21   34 1
    37   22   23 3
    38   25   35 1
    39   25   36 1
    40   25   37 1
@<TRIPOS>MOLECULE
CHEMBL1210783
   57    61     0     0     0
SMALL
USER_CHARGES

@<TRIPOS>ATOM
      1 C1         -0.0875    1.5014    0.3295 C.3       1 <0>        -0.1412
      2 C2         -0.0523   -0.0254    0.2371 C.3       1 <0>         0.1055
      3 C3         -1.4660   -0.6259    0.1556 C.3       1 <0>         0.1068
      4 N1         -1.3303   -2.0884    0.0473 N.pl3     1 <0>        -0.6322
      5 C4         -0.3945   -2.7673    0.9594 C.3       1 <0>         0.1086
      6 C5          0.9205   -1.9697    0.9686 C.3       1 <0>         0.1035
      7 O1          0.6084   -0.6193    1.3763 O.3       1 <0>        -0.3422
      8 C6          1.4109   -1.8372   -0.4903 C.3       1 <0>        -0.1366
      9 H1          1.1587   -2.7022   -1.1038 H         1 <0>         0.1503
     10 C7          0.7579   -0.5099   -0.9858 C.3       1 <0>        -0.1383
     11 H2          0.1431   -0.6491   -1.8750 H         1 <0>         0.1495
     12 C8          1.9311    0.4191   -1.2015 C.2       1 <0>         0.5409
     13 O2          1.8552    1.5643   -1.5919 O.2       1 <0>        -0.4521
     14 N2          3.0661   -0.2191   -0.8938 N.am      1 <0>        -0.5399
     15 C9          2.8903   -1.5254   -0.4896 C.2       1 <0>         0.5438
     16 O3          3.7683   -2.2964   -0.1667 O.2       1 <0>        -0.4399
     17 C10         4.3240    0.3848   -0.9923 C.ar      1 <0>         0.1421
     18 C11         5.1530    0.4462    0.1225 C.ar      1 <0>        -0.0705
     19 C12         6.3919    1.0402    0.0297 C.ar      1 <0>        -0.0539
     20 C13         6.8160    1.5814   -1.1872 C.ar      1 <0>         0.0366
     21 C14         5.9803    1.5174   -2.3052 C.ar      1 <0>        -0.1283
     22 C15         4.7445    0.9169   -2.2057 C.ar      1 <0>        -0.0561
     23 C16         6.4325    2.0999   -3.6195 C.3       1 <0>         0.5072
     24 F1          5.4323    1.9155   -4.5801 F         1 <0>        -0.1677
     25 F2          6.6817    3.4675   -3.4624 F         1 <0>        -0.1669
     26 F3          7.6033    1.4574   -4.0361 F         1 <0>        -0.1679
     27 C17         8.1033    2.2004   -1.2877 C.1       1 <0>         0.2274
     28 N3          9.1246    2.6915   -1.3675 N.1       1 <0>        -0.3640
     29 C18         1.9693   -2.6127    1.8783 C.3       1 <0>        -0.1402
     30 C19        -2.0686   -2.8109   -0.8934 C.ar      1 <0>         0.2112
     31 C20        -1.8380   -4.1715   -1.0619 C.ar      1 <0>        -0.1723
     32 C21        -2.5660   -4.8907   -1.9907 C.ar      1 <0>        -0.0751
     33 C22        -3.5269   -4.2630   -2.7574 C.ar      1 <0>        -0.1418
     34 C23        -3.7662   -2.8974   -2.5961 C.ar      1 <0>        -0.0891
     35 C24        -3.0352   -2.1724   -1.6549 C.ar      1 <0>        -0.1366
     36 C25        -4.7947   -2.2226   -3.4165 C.2       1 <0>         0.5614
     37 O4         -5.0015   -1.0333   -3.2744 O.2       1 <0>        -0.5379
     38 N4         -5.5030   -2.9262   -4.3219 N.am      1 <0>        -0.8493
     39 H3          0.9305    1.8848    0.3980 H         1 <0>         0.0734
     40 H4         -0.5700    1.9082   -0.5592 H         1 <0>         0.0886
     41 H5         -0.6482    1.7989    1.2157 H         1 <0>         0.0781
     42 H6         -2.0266   -0.3731    1.0556 H         1 <0>         0.0852
     43 H7         -1.9818   -0.2373   -0.7225 H         1 <0>         0.1013
     44 H8         -0.8151   -2.7964    1.9646 H         1 <0>         0.0848
     45 H9         -0.2077   -3.7820    0.6077 H         1 <0>         0.0998
     46 H10         4.8246    0.0277    1.0624 H         1 <0>         0.1508
     47 H11         7.0349    1.0881    0.8961 H         1 <0>         0.1594
     48 H12         4.0997    0.8634   -3.0705 H         1 <0>         0.1552
     49 H13         2.1933   -3.6177    1.5207 H         1 <0>         0.0879
     50 H14         2.8785   -2.0116    1.8660 H         1 <0>         0.0715
     51 H15         1.5833   -2.6668    2.8962 H         1 <0>         0.0796
     52 H16        -1.0872   -4.6681   -0.4651 H         1 <0>         0.1287
     53 H17        -2.3822   -5.9473   -2.1174 H         1 <0>         0.1306
     54 H18        -4.0934   -4.8285   -3.4824 H         1 <0>         0.1241
     55 H19        -3.2189   -1.1163   -1.5228 H         1 <0>         0.1375
     56 H20        -5.3380   -3.8753   -4.4354 H         1 <0>         0.4021
     57 H21        -6.1777   -2.4835   -4.8601 H         1 <0>         0.4066
@<TRIPOS>BOND
     1    1    2 1
     2    1   39 1
     3    1   40 1
     4    1   41 1
     5    2    7 1
     6    2   10 1
     7    2    3 1
     8    3    4 1
     9    3   42 1
    10    3   43 1
    11    4    5 1
    12    4   30 1
    13    5    6 1
    14    5   44 1
    15    5   45 1
    16    6    7 1
    17    6    8 1
    18    6   29 1
    19    8    9 1
    20    8   15 1
    21    8   10 1
    22   10   11 1
    23   10   12 1
    24   12   13 2
    25   12   14 am
    26   14   15 am
    27   14   17 1
    28   15   16 2
    29   17   22 ar
    30   17   18 ar
    31   18   19 ar
    32   18   46 1
    33   19   20 ar
    34   19   47 1
    35   20   21 ar
    36   20   27 1
    37   21   22 ar
    38   21   23 1
    39   22   48 1
    40   23   24 1
    41   23   25 1
    42   23   26 1
    43   27   28 3
    44   29   49 1
    45   29   50 1
    46   29   51 1
    47   30   35 ar
    48   30   31 ar
    49   31   32 ar
    50   31   52 1
    51   32   33 ar
    52   32   53 1
    53   33   34 ar
    54   33   54 1
    55   34   35 ar
    56   34   36 1
    57   35   55 1
    58   36   37 2
    59   36   38 am
    60   38   56 1
    61   38   57 1
@<TRIPOS>MOLECULE
CHEMBL570897
   32    34     0     0     0
SMALL
USER_CHARGES

@<TRIPOS>ATOM
      1 C1          0.0219    1.2850   -0.7872 C.ar      1 <0>        -0.1144
      2 C2          1.2071    2.0179   -0.7977 C.ar      1 <0>        -0.0859
      3 C3          2.4042    1.4173   -0.5560 C.ar      1 <0>        -0.1245
      4 C4          2.4494    0.0374   -0.2910 C.ar      1 <0>        -0.0064
      5 C5          1.2437   -0.7065   -0.2801 C.ar      1 <0>        -0.0651
      6 C6          0.0279   -0.0528   -0.5343 C.ar      1 <0>        -0.0825
      7 C7          1.2887   -2.0919   -0.0140 C.ar      1 <0>         0.2672
      8 C8          2.5044   -2.6949    0.2301 C.ar      1 <0>        -0.1422
      9 C9          3.6817   -1.9533    0.2171 C.ar      1 <0>        -0.0225
     10 C10         3.6673   -0.6155   -0.0367 C.ar      1 <0>        -0.0453
     11 N1          4.9342    0.1504   -0.0454 N.pl3     1 <0>         0.0332
     12 O1          5.9380   -0.3466   -0.5006 O.2       1 <0>        -0.1516
     13 O2          4.9651    1.2728    0.4028 O.3       1 <0>        -0.1527
     14 N2          0.1155   -2.8430    0.0022 N.pl3     1 <0>        -0.6932
     15 C11        -0.4778   -3.5305   -1.1541 C.3       1 <0>         0.1310
     16 C12        -1.7770   -4.2067   -0.6679 C.3       1 <0>        -0.1314
     17 C13        -2.1386   -3.3920    0.6021 C.3       1 <0>        -0.1335
     18 C14        -0.7332   -3.0855    1.1830 C.3       1 <0>         0.1298
     19 H1         -0.9155    1.7863   -0.9780 H         1 <0>         0.1322
     20 H2          1.1752    3.0781   -1.0010 H         1 <0>         0.1347
     21 H3          3.3149    1.9977   -0.5681 H         1 <0>         0.1470
     22 H4         -0.8983   -0.6083   -0.5289 H         1 <0>         0.1368
     23 H5          2.5432   -3.7548    0.4342 H         1 <0>         0.1479
     24 H6          4.6224   -2.4468    0.4118 H         1 <0>         0.1506
     25 H7         -0.7066   -2.8081   -1.9376 H         1 <0>         0.0529
     26 H8          0.2133   -4.2840   -1.5320 H         1 <0>         0.0541
     27 H9         -2.5620   -4.1186   -1.4191 H         1 <0>         0.0810
     28 H10        -1.5972   -5.2521   -0.4173 H         1 <0>         0.0761
     29 H11        -2.6656   -2.4744    0.3407 H         1 <0>         0.0747
     30 H12        -2.7245   -3.9926    1.2978 H         1 <0>         0.0828
     31 H13        -0.3601   -3.9386    1.7496 H         1 <0>         0.0560
     32 H14        -0.7692   -2.1969    1.8132 H         1 <0>         0.0631
@<TRIPOS>BOND
     1    1    6 ar
     2    1    2 ar
     3    1   19 1
     4    2    3 ar
     5    2   20 1
     6    3    4 ar
     7    3   21 1
     8    4   10 ar
     9    4    5 ar
    10    5    6 ar
    11    5    7 ar
    12    6   22 1
    13    7    8 ar
    14    7   14 1
    15    8    9 ar
    16    8   23 1
    17    9   10 ar
    18    9   24 1
    19   10   11 1
    20   11   12 2
    21   11   13 1
    22   14   18 1
    23   14   15 1
    24   15   16 1
    25   15   25 1
    26   15   26 1
    27   16   17 1
    28   16   27 1
    29   16   28 1
    30   17   18 1
    31   17   29 1
    32   17   30 1
    33   18   31 1
    34   18   32 1
@<TRIPOS>MOLECULE
CHEMBL1215623
   41    43     0     0     0
SMALL
USER_CHARGES

@<TRIPOS>ATOM
      1 C1          0.3551    1.4766    0.2704 C.3       1 <0>        -0.1311
      2 C2          0.1843   -0.0140    0.1287 C.2       1 <0>         0.2078
      3 C3         -1.0500   -0.5391    0.0904 C.2       1 <0>        -0.1384
      4 C4         -1.2685   -2.0179   -0.0587 C.3       1 <0>         0.0776
      5 H1         -2.0499   -2.3364    0.6312 H         1 <0>         0.1070
      6 C5         -0.0062   -2.7757    0.2398 C.2       1 <0>        -0.1570
      7 C6          1.1897   -2.1614    0.2725 C.2       1 <0>         0.1461
      8 N1          1.2929   -0.8174    0.0348 N.pl3     1 <0>        -0.6290
      9 C7          2.4308   -2.9634    0.5685 C.3       1 <0>         0.1474
     10 N2          3.0746   -3.3491   -0.6897 N.pl3     1 <0>        -0.3232
     11 C8          4.3520   -3.1104   -1.0402 C.2       1 <0>         0.1581
     12 N3          4.5151   -3.6189   -2.2371 N.2       1 <0>        -0.3002
     13 N4          3.3962   -4.1427   -2.6028 N.2       1 <0>        -0.0673
     14 N5          2.5251   -3.9863   -1.6678 N.2       1 <0>        -0.0632
     15 C9         -0.0770   -4.1647    0.4924 C.2       1 <0>         0.5070
     16 O1         -0.1692   -4.9477   -0.4345 O.2       1 <0>        -0.4515
     17 O2         -0.0424   -4.6224    1.7615 O.3       1 <0>        -0.3548
     18 C10        -0.1183   -6.0378    1.9430 C.3       1 <0>         0.0298
     19 C11        -1.7024   -2.3153   -1.4709 C.ar      1 <0>        -0.0847
     20 C12        -0.8751   -1.9922   -2.5303 C.ar      1 <0>        -0.0481
     21 C13        -1.2717   -2.2644   -3.8257 C.ar      1 <0>        -0.1431
     22 C14        -2.4986   -2.8612   -4.0633 C.ar      1 <0>         0.1205
     23 C15        -3.3267   -3.1851   -3.0026 C.ar      1 <0>        -0.1443
     24 C16        -2.9258   -2.9167   -1.7061 C.ar      1 <0>         0.0038
     25 Cl1        -3.9611   -3.3281   -0.3746 Cl        1 <0>        -0.0515
     26 F1         -2.8871   -3.1267   -5.3297 F         1 <0>        -0.1297
     27 C17        -2.1839    0.3293    0.1943 C.1       1 <0>         0.2608
     28 N6         -3.0834    1.0182    0.2768 N.1       1 <0>        -0.4103
     29 H2          1.4172    1.7215    0.2786 H         1 <0>         0.0833
     30 H3         -0.1271    1.9789   -0.5682 H         1 <0>         0.0940
     31 H4         -0.1013    1.8075    1.2033 H         1 <0>         0.0967
     32 H5          2.1518   -0.4305   -0.1967 H         1 <0>         0.4225
     33 H6          3.1204   -2.3608    1.1596 H         1 <0>         0.1427
     34 H7          2.1600   -3.8590    1.1275 H         1 <0>         0.1311
     35 H8          5.0978   -2.5986   -0.4499 H         1 <0>         0.2370
     36 H9         -0.0802   -6.2702    3.0073 H         1 <0>         0.1054
     37 H10        -1.0536   -6.4082    1.5235 H         1 <0>         0.0651
     38 H11         0.7210   -6.5145    1.4367 H         1 <0>         0.0612
     39 H12         0.0817   -1.5265   -2.3454 H         1 <0>         0.1309
     40 H13        -0.6250   -2.0115   -4.6529 H         1 <0>         0.1430
     41 H14        -4.2839   -3.6502   -3.1869 H         1 <0>         0.1486
@<TRIPOS>BOND
     1    1    2 1
     2    1   29 1
     3    1   30 1
     4    1   31 1
     5    2    8 1
     6    2    3 2
     7    3    4 1
     8    3   27 1
     9    4    5 1
    10    4    6 1
    11    4   19 1
    12    6    7 2
    13    6   15 1
    14    7    8 1
    15    7    9 1
    16    8   32 1
    17    9   10 1
    18    9   33 1
    19    9   34 1
    20   10   14 1
    21   10   11 1
    22   11   12 2
    23   11   35 1
    24   12   13 1
    25   13   14 2
    26   15   16 2
    27   15   17 1
    28   17   18 1
    29   18   36 1
    30   18   37 1
    31   18   38 1
    32   19   24 ar
    33   19   20 ar
    34   20   21 ar
    35   20   39 1
    36   21   22 ar
    37   21   40 1
    38   22   23 ar
    39   22   26 1
    40   23   24 ar
    41   23   41 1
    42   24   25 1
    43   27   28 3
@<TRIPOS>MOLECULE
CHEMBL501080
   45    48     0     0     0
SMALL
USER_CHARGES

@<TRIPOS>ATOM
      1 C1          0.6511   -0.3704   -1.3549 C.3       1 <0>        -0.1576
      2 C2         -0.0994    0.1981   -0.1489 C.3       1 <0>        -0.1143
      3 C3         -1.4333   -0.5336    0.0129 C.3       1 <0>         0.2601
      4 C4         -1.1489   -1.9829    0.2594 C.ar      1 <0>        -0.1390
      5 C5          0.1032   -2.2751    0.7904 C.ar      1 <0>        -0.0583
      6 C6          0.4831   -3.5825    1.0595 C.ar      1 <0>        -0.0788
      7 C7         -0.4094   -4.6195    0.7908 C.ar      1 <0>        -0.0563
      8 C8         -1.6439   -4.3308    0.2687 C.ar      1 <0>        -0.1606
      9 C9         -2.0355   -3.0080   -0.0039 C.ar      1 <0>         0.2068
     10 N1         -3.3056   -2.8680   -0.5173 N.am      1 <0>        -0.6464
     11 C10        -3.9884   -1.8818   -1.0348 C.2       1 <0>         0.4996
     12 O1         -5.0285   -2.1686   -1.5889 O.2       1 <0>        -0.5243
     13 C11        -3.6157   -0.4394   -1.0110 C.3       1 <0>         0.0484
     14 O2         -2.2207   -0.2654   -1.1089 O.3       1 <0>        -0.3418
     15 C12         1.8232   -3.8734    1.6260 C.ar      1 <0>        -0.0033
     16 C13         2.1984   -5.1873    1.8875 C.ar      1 <0>        -0.0768
     17 C14         3.4592   -5.4543    2.4194 C.ar      1 <0>         0.0144
     18 C15         4.3381   -4.4020    2.6866 C.ar      1 <0>        -0.1098
     19 C16         3.9584   -3.0989    2.4242 C.ar      1 <0>         0.1136
     20 C17         2.7098   -2.8309    1.8914 C.ar      1 <0>        -0.1231
     21 F1          4.8113   -2.0839    2.6844 F         1 <0>        -0.1276
     22 C18         3.8521   -6.8042    2.6916 C.1       1 <0>         0.2474
     23 N2          4.1637   -7.8751    2.9075 N.1       1 <0>        -0.3948
     24 C19        -2.1323    0.0221    1.2268 C.2       1 <0>        -0.0669
     25 C20        -2.0956   -0.5028    2.4648 C.2       1 <0>        -0.1786
     26 C21        -2.8848    0.3332    3.2877 C.2       1 <0>        -0.2139
     27 C22        -3.3565    1.3190    2.5034 C.2       1 <0>        -0.0316
     28 O3         -2.8928    1.1286    1.2574 O.3       1 <0>        -0.1663
     29 H1          1.6014    0.1508   -1.4702 H         1 <0>         0.0635
     30 H2          0.8362   -1.4333   -1.1996 H         1 <0>         0.0619
     31 H3          0.0504   -0.2339   -2.2541 H         1 <0>         0.0676
     32 H4          0.5014    0.0615    0.7502 H         1 <0>         0.0869
     33 H5         -0.2845    1.2609   -0.3042 H         1 <0>         0.0850
     34 H6          0.7926   -1.4697    0.9967 H         1 <0>         0.1447
     35 H7         -0.1302   -5.6432    0.9922 H         1 <0>         0.1394
     36 H8         -2.3313   -5.1378    0.0621 H         1 <0>         0.1368
     37 H9         -3.8114   -3.6951   -0.4882 H         1 <0>         0.4023
     38 H10        -4.0975    0.0670   -1.8473 H         1 <0>         0.1453
     39 H11        -3.9653    0.0037   -0.0785 H         1 <0>         0.0989
     40 H12         1.5153   -5.9975    1.6796 H         1 <0>         0.1443
     41 H13         5.3151   -4.6066    3.0989 H         1 <0>         0.1490
     42 H14         2.4201   -1.8113    1.6841 H         1 <0>         0.1461
     43 H15        -1.5656   -1.3925    2.7712 H         1 <0>         0.1496
     44 H16        -3.0731    0.2048    4.3433 H         1 <0>         0.1519
     45 H17        -3.9964    2.1284    2.8224 H         1 <0>         0.2070
@<TRIPOS>BOND
     1    1    2 1
     2    1   29 1
     3    1   30 1
     4    1   31 1
     5    2    3 1
     6    2   32 1
     7    2   33 1
     8    3   14 1
     9    3    4 1
    10    3   24 1
    11    4    9 ar
    12    4    5 ar
    13    5    6 ar
    14    5   34 1
    15    6    7 ar
    16    6   15 1
    17    7    8 ar
    18    7   35 1
    19    8    9 ar
    20    8   36 1
    21    9   10 1
    22   10   11 am
    23   10   37 1
    24   11   12 2
    25   11   13 1
    26   13   14 1
    27   13   38 1
    28   13   39 1
    29   15   20 ar
    30   15   16 ar
    31   16   17 ar
    32   16   40 1
    33   17   18 ar
    34   17   22 1
    35   18   19 ar
    36   18   41 1
    37   19   20 ar
    38   19   21 1
    39   20   42 1
    40   22   23 3
    41   24   28 1
    42   24   25 2
    43   25   26 1
    44   25   43 1
    45   26   27 2
    46   26   44 1
    47   27   28 1
    48   27   45 1
@<TRIPOS>MOLECULE
CHEMBL501080__1
   45    48     0     0     0
SMALL
USER_CHARGES

@<TRIPOS>ATOM
      1 C1         -0.0095    1.5057    0.2499 C.3       1 <0>        -0.1523
      2 C2          0.0021   -0.0041    0.0020 C.3       1 <0>        -0.1145
      3 C3         -1.4333   -0.5336    0.0129 C.3       1 <0>         0.2588
      4 C4         -1.3944   -2.0060   -0.2566 C.ar      1 <0>        -0.1418
      5 C5         -0.2734   -2.4702   -0.9372 C.ar      1 <0>        -0.0612
      6 C6         -0.1231   -3.8158   -1.2419 C.ar      1 <0>        -0.0767
      7 C7         -1.1159   -4.7159   -0.8566 C.ar      1 <0>        -0.0566
      8 C8         -2.2211   -4.2576   -0.1870 C.ar      1 <0>        -0.1598
      9 C9         -2.3803   -2.8951    0.1225 C.ar      1 <0>         0.2071
     10 N1         -3.5430   -2.5787    0.7890 N.am      1 <0>        -0.6467
     11 C10        -4.0065   -1.5099    1.3802 C.2       1 <0>         0.4995
     12 O1         -4.9999   -1.6496    2.0618 O.2       1 <0>        -0.5242
     13 C11        -3.4351   -0.1362    1.2993 C.3       1 <0>         0.0480
     14 O2         -2.0280   -0.1667    1.2220 O.3       1 <0>        -0.3414
     15 C12         1.0795   -4.2908   -1.9695 C.ar      1 <0>        -0.0038
     16 C13         1.2199   -5.6406   -2.2763 C.ar      1 <0>        -0.0767
     17 C14         2.3519   -6.0809   -2.9606 C.ar      1 <0>         0.0144
     18 C15         3.3383   -5.1651   -3.3342 C.ar      1 <0>        -0.1097
     19 C16         3.1922   -3.8254   -3.0261 C.ar      1 <0>         0.1135
     20 C17         2.0673   -3.3844   -2.3516 C.ar      1 <0>        -0.1229
     21 F1          4.1487   -2.9430   -3.3889 F         1 <0>        -0.1276
     22 C18         2.5034   -7.4687   -3.2793 C.1       1 <0>         0.2475
     23 N2          2.6235   -8.5697   -3.5321 N.1       1 <0>        -0.3947
     24 C19        -2.1899    0.1303   -1.1086 C.2       1 <0>        -0.0606
     25 C20        -2.3718   -0.3747   -2.3420 C.2       1 <0>        -0.1809
     26 C21        -3.1328    0.5728   -3.0645 C.2       1 <0>        -0.2132
     27 C22        -3.3704    1.6002   -2.2294 C.2       1 <0>        -0.0337
     28 O3         -2.8019    1.3241   -1.0444 O.3       1 <0>        -0.1649
     29 H1          1.0131    1.8830    0.2422 H         1 <0>         0.0611
     30 H2         -0.5844    1.9983   -0.5342 H         1 <0>         0.0569
     31 H3         -0.4653    1.7114    1.2184 H         1 <0>         0.0678
     32 H4          0.4579   -0.2097   -0.9665 H         1 <0>         0.0871
     33 H5          0.5770   -0.4966    0.7862 H         1 <0>         0.0881
     34 H6          0.4938   -1.7706   -1.2342 H         1 <0>         0.1441
     35 H7         -1.0151   -5.7668   -1.0844 H         1 <0>         0.1396
     36 H8         -2.9869   -4.9590    0.1095 H         1 <0>         0.1370
     37 H9         -4.1631   -3.3236    0.8284 H         1 <0>         0.4023
     38 H10        -3.8301    0.3625    0.4142 H         1 <0>         0.1000
     39 H11        -3.7312    0.4256    2.1853 H         1 <0>         0.1452
     40 H12         0.4547   -6.3449   -1.9850 H         1 <0>         0.1444
     41 H13         4.2163   -5.5041   -3.8641 H         1 <0>         0.1490
     42 H14         1.9561   -2.3360   -2.1174 H         1 <0>         0.1463
     43 H15        -2.0061   -1.3220   -2.7099 H         1 <0>         0.1489
     44 H16        -3.4602    0.4881   -4.0902 H         1 <0>         0.1512
     45 H17        -3.9274    2.4937   -2.4699 H         1 <0>         0.2061
@<TRIPOS>BOND
     1    1    2 1
     2    1   29 1
     3    1   30 1
     4    1   31 1
     5    2    3 1
     6    2   32 1
     7    2   33 1
     8    3   14 1
     9    3    4 1
    10    3   24 1
    11    4    9 ar
    12    4    5 ar
    13    5    6 ar
    14    5   34 1
    15    6    7 ar
    16    6   15 1
    17    7    8 ar
    18    7   35 1
    19    8    9 ar
    20    8   36 1
    21    9   10 1
    22   10   11 am
    23   10   37 1
    24   11   12 2
    25   11   13 1
    26   13   14 1
    27   13   38 1
    28   13   39 1
    29   15   20 ar
    30   15   16 ar
    31   16   17 ar
    32   16   40 1
    33   17   18 ar
    34   17   22 1
    35   18   19 ar
    36   18   41 1
    37   19   20 ar
    38   19   21 1
    39   20   42 1
    40   22   23 3
    41   24   28 1
    42   24   25 2
    43   25   26 1
    44   25   43 1
    45   26   27 2
    46   26   44 1
    47   27   28 1
    48   27   45 1
@<TRIPOS>MOLECULE
CHEMBL135
   44    47     0     0     0
SMALL
USER_CHARGES

@<TRIPOS>ATOM
      1 C1         -0.0187    1.5258    0.0104 C.3       1 <0>        -0.1354
      2 C2          0.0021   -0.0041    0.0020 C.3       1 <0>        -0.0564
      3 C3         -1.4142   -0.5425    0.0489 C.3       1 <0>        -0.1016
      4 C4         -2.0973    0.0441    1.2987 C.3       1 <0>        -0.1130
      5 C5         -1.3125   -0.3073    2.5542 C.3       1 <0>        -0.0424
      6 H1         -1.3075   -1.3927    2.6533 H         1 <0>         0.0765
      7 C6         -1.9424    0.2651    3.7900 C.ar      1 <0>        -0.0773
      8 C7         -3.3273    0.3484    3.8443 C.ar      1 <0>        -0.1030
      9 C8         -3.9576    0.8569    4.9598 C.ar      1 <0>        -0.1472
     10 C9         -3.2003    1.2884    6.0396 C.ar      1 <0>         0.1024
     11 C10        -1.8198    1.2087    5.9840 C.ar      1 <0>        -0.1480
     12 C11        -1.1856    0.7013    4.8579 C.ar      1 <0>        -0.0577
     13 C12         0.3200    0.6669    4.8604 C.3       1 <0>        -0.0825
     14 C13         0.8561   -0.2331    3.7476 C.3       1 <0>        -0.1135
     15 C14         0.1446    0.1628    2.4542 C.3       1 <0>        -0.0739
     16 H2          0.1741    1.2443    2.3212 H         1 <0>         0.0865
     17 C15         0.7512   -0.5345    1.2564 C.3       1 <0>        -0.0835
     18 H3          0.6224   -1.6140    1.3350 H         1 <0>         0.0754
     19 C16         2.2091   -0.2046    0.9567 C.3       1 <0>        -0.1120
     20 C17         2.3296   -0.2454   -0.5872 C.3       1 <0>        -0.1564
     21 C18         0.8992   -0.5108   -1.1319 C.3       1 <0>         0.1090
     22 H4          0.7424   -1.5760   -1.3012 H         1 <0>         0.0609
     23 O1          0.6684    0.2327   -2.3302 O.3       1 <0>        -0.5588
     24 O2         -3.8114    1.7874    7.1461 O.3       1 <0>        -0.5003
     25 H5          1.0039    1.9031    0.0027 H         1 <0>         0.0539
     26 H6         -0.5459    1.8868   -0.8726 H         1 <0>         0.0599
     27 H7         -0.5289    1.8773    0.9072 H         1 <0>         0.0606
     28 H8         -1.9557   -0.2363   -0.8462 H         1 <0>         0.0693
     29 H9         -1.3938   -1.6303    0.1152 H         1 <0>         0.0628
     30 H10        -2.1534    1.1283    1.2019 H         1 <0>         0.0698
     31 H11        -3.1059   -0.3612    1.3804 H         1 <0>         0.0659
     32 H12        -3.9166    0.0119    3.0041 H         1 <0>         0.1276
     33 H13        -5.0353    0.9194    4.9932 H         1 <0>         0.1275
     34 H14        -1.2303    1.5447    6.8243 H         1 <0>         0.1259
     35 H15         0.7005    1.6781    4.7162 H         1 <0>         0.0774
     36 H16         0.6668    0.2900    5.8226 H         1 <0>         0.0749
     37 H17         1.9304   -0.0841    3.6397 H         1 <0>         0.0720
     38 H18         0.6512   -1.2764    3.9877 H         1 <0>         0.0665
     39 H19         2.4554    0.7900    1.3285 H         1 <0>         0.0683
     40 H20         2.8651   -0.9498    1.4065 H         1 <0>         0.0656
     41 H21         2.7000    0.7100   -0.9588 H         1 <0>         0.0739
     42 H22         3.0000   -1.0500   -0.8889 H         1 <0>         0.0643
     43 H23         1.2119   -0.0490   -3.0787 H         1 <0>         0.3759
     44 H24        -4.0214    1.1203    7.8140 H         1 <0>         0.3901
@<TRIPOS>BOND
     1    1    2 1
     2    1   25 1
     3    1   26 1
     4    1   27 1
     5    2   17 1
     6    2   21 1
     7    2    3 1
     8    3    4 1
     9    3   28 1
    10    3   29 1
    11    4    5 1
    12    4   30 1
    13    4   31 1
    14    5    6 1
    15    5   15 1
    16    5    7 1
    17    7   12 ar
    18    7    8 ar
    19    8    9 ar
    20    8   32 1
    21    9   10 ar
    22    9   33 1
    23   10   11 ar
    24   10   24 1
    25   11   12 ar
    26   11   34 1
    27   12   13 1
    28   13   14 1
    29   13   35 1
    30   13   36 1
    31   14   15 1
    32   14   37 1
    33   14   38 1
    34   15   16 1
    35   15   17 1
    36   17   18 1
    37   17   19 1
    38   19   20 1
    39   19   39 1
    40   19   40 1
    41   20   21 1
    42   20   41 1
    43   20   42 1
    44   21   22 1
    45   21   23 1
    46   23   43 1
    47   24   44 1
@<TRIPOS>MOLECULE
CHEMBL16807
   28    30     0     0     0
SMALL
USER_CHARGES

@<TRIPOS>ATOM
      1 C1         -0.0167    1.3795    0.0096 C.ar      1 <0>        -0.0930
      2 C2          1.1683    2.0940    0.0021 C.ar      1 <0>        -0.1232
      3 C3          2.3774    1.4304   -0.0130 C.ar      1 <0>        -0.0793
      4 C4          2.4038    0.0341   -0.0208 C.ar      1 <0>        -0.0750
      5 C5          1.2040   -0.6806   -0.0131 C.ar      1 <0>        -0.0802
      6 C6          0.0021   -0.0041    0.0020 C.ar      1 <0>        -0.1208
      7 C7          3.6945   -0.6833   -0.0374 C.2       1 <0>         0.2085
      8 C8          3.6864   -2.0427   -0.0502 C.2       1 <0>        -0.3146
      9 C9          4.9142   -2.7473   -0.0663 C.2       1 <0>         0.4212
     10 O1          4.9455   -3.9669   -0.0785 O.2       1 <0>        -0.4549
     11 C10         6.1533   -1.9489   -0.0683 C.ar      1 <0>        -0.2563
     12 C11         7.4125   -2.5590   -0.0842 C.ar      1 <0>         0.1995
     13 C12         8.5505   -1.7700   -0.0860 C.ar      1 <0>        -0.1780
     14 C13         8.4415   -0.3896   -0.0716 C.ar      1 <0>        -0.0390
     15 C14         7.2039    0.2210   -0.0559 C.ar      1 <0>        -0.1519
     16 C15         6.0482   -0.5488   -0.0543 C.ar      1 <0>         0.1630
     17 O2          4.8300    0.0319   -0.0449 O.3       1 <0>        -0.2195
     18 O3          7.5175   -3.9119   -0.0974 O.3       1 <0>        -0.4761
     19 H1         -0.9606    1.9042    0.0260 H         1 <0>         0.1308
     20 H2          1.1464    3.1738    0.0078 H         1 <0>         0.1325
     21 H3          3.3016    1.9893   -0.0192 H         1 <0>         0.1350
     22 H4          1.2172   -1.7605   -0.0194 H         1 <0>         0.1359
     23 H5         -0.9265   -0.5555    0.0079 H         1 <0>         0.1345
     24 H6          2.7502   -2.5812   -0.0477 H         1 <0>         0.1625
     25 H7          9.5263   -2.2328   -0.0982 H         1 <0>         0.1434
     26 H8          9.3355    0.2164   -0.0724 H         1 <0>         0.1472
     27 H9          7.1342    1.2987   -0.0448 H         1 <0>         0.1469
     28 H10         7.5407   -4.2960   -0.9845 H         1 <0>         0.4010
@<TRIPOS>BOND
     1    1    6 ar
     2    1    2 ar
     3    1   19 1
     4    2    3 ar
     5    2   20 1
     6    3    4 ar
     7    3   21 1
     8    4    5 ar
     9    4    7 1
    10    5    6 ar
    11    5   22 1
    12    6   23 1
    13    7   17 1
    14    7    8 2
    15    8    9 1
    16    8   24 1
    17    9   10 2
    18    9   11 1
    19   11   16 ar
    20   11   12 ar
    21   12   13 ar
    22   12   18 1
    23   13   14 ar
    24   13   25 1
    25   14   15 ar
    26   14   26 1
    27   15   16 ar
    28   15   27 1
    29   16   17 1
    30   18   28 1
@<TRIPOS>MOLECULE
CHEMBL237900
   41    43     0     0     0
SMALL
USER_CHARGES

@<TRIPOS>ATOM
      1 C1         -0.0171    1.4096    0.0098 C.2       1 <0>        -0.1986
      2 C2          1.2649    1.8168   -0.0003 C.2       1 <0>        -0.0381
      3 O1          2.0550    0.7308   -0.0136 O.3       1 <0>        -0.1748
      4 C3          1.2946   -0.3762   -0.0123 C.2       1 <0>        -0.0234
      5 C4          0.0021   -0.0041    0.0020 C.2       1 <0>        -0.2046
      6 C5         -1.1957   -0.9185    0.0085 C.3       1 <0>         0.1888
      7 N1         -1.5971   -1.2074   -1.3705 N.pl3     1 <0>        -0.6098
      8 C6         -1.0280   -2.3603   -2.0727 C.3       1 <0>         0.0861
      9 C7         -1.9062   -3.5895   -1.8305 C.3       1 <0>         0.4192
     10 F1         -3.1970   -3.3421   -2.3099 F         1 <0>        -0.1627
     11 F2         -1.3627   -4.6904   -2.5012 F         1 <0>        -0.1854
     12 F3         -1.9620   -3.8599   -0.4590 F         1 <0>        -0.1847
     13 C8         -2.5221   -0.3840   -2.0155 C.2       1 <0>         0.2179
     14 C9         -2.8927   -0.6490   -3.2697 C.2       1 <0>        -0.2806
     15 C10        -3.9089    0.2158   -3.9645 C.3       1 <0>         0.0061
     16 C11        -3.8028    1.6581   -3.4974 C.3       1 <0>         0.1772
     17 C12        -3.7042    1.7332   -1.9988 C.2       1 <0>        -0.1433
     18 C13        -3.0957    0.7766   -1.3102 C.2       1 <0>        -0.1127
     19 N2         -4.9413    2.4478   -3.9607 N.am      1 <0>        -0.7161
     20 C14        -6.1710    1.9053   -4.0316 C.2       1 <0>         0.5557
     21 O2         -7.1297    2.5994   -4.3114 O.2       1 <0>        -0.5171
     22 C15        -6.3503    0.4689   -3.7686 C.2       1 <0>        -0.1222
     23 C16        -5.2895   -0.3295   -3.7235 C.2       1 <0>        -0.1386
     24 C17        -5.4715   -1.7960   -3.4278 C.3       1 <0>         0.5009
     25 F4         -6.8307   -2.0688   -3.2405 F         1 <0>        -0.1796
     26 F5         -4.9878   -2.5516   -4.5013 F         1 <0>        -0.1718
     27 F6         -4.7647   -2.1289   -2.2673 F         1 <0>        -0.1508
     28 H1         -0.8929    2.0413    0.0255 H         1 <0>         0.1466
     29 H2          1.6017    2.8429    0.0015 H         1 <0>         0.2019
     30 H3          1.6591   -1.3928   -0.0218 H         1 <0>         0.1993
     31 H4         -0.9396   -1.8491    0.5150 H         1 <0>         0.0905
     32 H5         -2.0196   -0.4344    0.5329 H         1 <0>         0.0918
     33 H6         -0.9845   -2.1497   -3.1413 H         1 <0>         0.1222
     34 H7         -0.0222   -2.5530   -1.6993 H         1 <0>         0.1176
     35 H8         -2.4598   -1.4906   -3.7899 H         1 <0>         0.1267
     36 H9         -3.7087    0.1962   -5.0358 H         1 <0>         0.1129
     37 H10        -2.8981    2.0920   -3.9234 H         1 <0>         0.1154
     38 H11        -4.1373    2.5735   -1.4765 H         1 <0>         0.1321
     39 H12        -3.0168    0.8489   -0.2356 H         1 <0>         0.1303
     40 H13        -4.8095    3.3732   -4.2198 H         1 <0>         0.4134
     41 H14        -7.3399    0.0655   -3.6126 H         1 <0>         0.1624
@<TRIPOS>BOND
     1    1    5 1
     2    1    2 2
     3    1   28 1
     4    2    3 1
     5    2   29 1
     6    3    4 1
     7    4    5 2
     8    4   30 1
     9    5    6 1
    10    6    7 1
    11    6   31 1
    12    6   32 1
    13    7    8 1
    14    7   13 1
    15    8    9 1
    16    8   33 1
    17    8   34 1
    18    9   10 1
    19    9   11 1
    20    9   12 1
    21   13   18 1
    22   13   14 2
    23   14   15 1
    24   14   35 1
    25   15   23 1
    26   15   16 1
    27   15   36 1
    28   16   17 1
    29   16   19 1
    30   16   37 1
    31   17   18 2
    32   17   38 1
    33   18   39 1
    34   19   20 am
    35   19   40 1
    36   20   21 2
    37   20   22 1
    38   22   23 2
    39   22   41 1
    40   23   24 1
    41   24   25 1
    42   24   26 1
    43   24   27 1
@<TRIPOS>MOLECULE
CHEMBL237900__1
   42    44     0     0     0
SMALL
USER_CHARGES

@<TRIPOS>ATOM
      1 C1         -0.2095    1.5433   -0.0444 C.2       1 <0>        -0.2102
      2 C2          1.0624    1.9668    0.0668 C.2       1 <0>        -0.0070
      3 O1          1.8522    0.8956    0.2468 O.3       1 <0>        -0.1584
      4 C3          1.1016   -0.2181    0.2530 C.2       1 <0>         0.0193
      5 C4         -0.1842    0.1348    0.0756 C.2       1 <0>        -0.2464
      6 C5         -1.3702   -0.7930    0.0163 C.3       1 <0>         0.1144
      7 N1         -1.5971   -1.2074   -1.3705 N.pl3     1 <0>        -0.4191
      8 C6         -1.9485   -0.2104   -2.3847 C.3       1 <0>        -0.0035
      9 C7         -3.3263    0.3749   -2.0686 C.3       1 <0>         0.4522
     10 F1         -3.2972    0.9819   -0.8085 F         1 <0>        -0.1645
     11 F2         -3.6619    1.3270   -3.0372 F         1 <0>        -0.1474
     12 F3         -4.2797   -0.6489   -2.0711 F         1 <0>        -0.1674
     13 C8         -1.4869   -2.4554   -1.6998 C.2       1 <0>         0.3666
     14 C9         -1.8642   -2.9369   -3.0854 C.3       1 <0>        -0.1410
     15 C10        -2.6345   -4.2536   -2.9229 C.3       1 <0>        -0.0538
     16 C11        -1.7491   -5.2858   -2.2419 C.3       1 <0>         0.1466
     17 C12        -1.1176   -4.7488   -0.9945 C.2       1 <0>         0.0162
     18 C13        -0.9846   -3.4554   -0.7420 C.2       1 <0>        -0.2040
     19 N2         -0.7222   -5.7802   -3.1564 N.am      1 <0>        -0.7184
     20 C14        -0.9963   -5.9600   -4.4621 C.2       1 <0>         0.5497
     21 O2         -0.1722   -6.4738   -5.1942 O.2       1 <0>        -0.4792
     22 C15        -2.2976   -5.5326   -4.9992 C.2       1 <0>        -0.0681
     23 C16        -3.0802   -4.7392   -4.2753 C.2       1 <0>        -0.1779
     24 C17        -4.4252   -4.3233   -4.8130 C.3       1 <0>         0.5057
     25 F4         -4.6189   -4.8928   -6.0761 F         1 <0>        -0.1622
     26 F5         -5.4305   -4.7619   -3.9446 F         1 <0>        -0.1641
     27 F6         -4.4748   -2.9291   -4.9176 F         1 <0>        -0.1734
     28 H1         -1.0829    2.1610   -0.1923 H         1 <0>         0.1591
     29 H2          1.3925    2.9940    0.0188 H         1 <0>         0.2157
     30 H3          1.4683   -1.2262    0.3785 H         1 <0>         0.2080
     31 H4         -1.1751   -1.6719    0.6308 H         1 <0>         0.1387
     32 H5         -2.2543   -0.2770    0.3905 H         1 <0>         0.1461
     33 H6         -1.2057    0.5873   -2.3828 H         1 <0>         0.1746
     34 H7         -1.9713   -0.6834   -3.3665 H         1 <0>         0.1660
     35 H8         -2.4964   -2.1963   -3.5752 H         1 <0>         0.1272
     36 H9         -3.5100   -4.0822   -2.2967 H         1 <0>         0.1330
     37 H10        -2.3735   -6.1350   -1.9646 H         1 <0>         0.1250
     38 H11        -0.7467   -5.4531   -0.2646 H         1 <0>         0.1750
     39 H12        -0.5101   -3.1316    0.1725 H         1 <0>         0.1754
     40 H13         0.1650   -5.9809   -2.8195 H         1 <0>         0.4201
     41 H14        -2.6153   -5.8620   -5.9775 H         1 <0>         0.1792
     42 H15        -0.9640   -3.1053   -3.6765 H         1 <0>         0.1522
@<TRIPOS>BOND
     1    1    5 1
     2    1    2 2
     3    1   28 1
     4    2    3 1
     5    2   29 1
     6    3    4 1
     7    4    5 2
     8    4   30 1
     9    5    6 1
    10    6    7 1
    11    6   31 1
    12    6   32 1
    13    7    8 1
    14    7   13 2
    15    8    9 1
    16    8   33 1
    17    8   34 1
    18    9   10 1
    19    9   11 1
    20    9   12 1
    21   13   18 1
    22   13   14 1
    23   14   15 1
    24   14   35 1
    25   14   42 1
    26   15   23 1
    27   15   16 1
    28   15   36 1
    29   16   17 1
    30   16   19 1
    31   16   37 1
    32   17   18 2
    33   17   38 1
    34   18   39 1
    35   19   20 am
    36   19   40 1
    37   20   21 2
    38   20   22 1
    39   22   23 2
    40   22   41 1
    41   23   24 1
    42   24   25 1
    43   24   26 1
    44   24   27 1
@<TRIPOS>MOLECULE
CHEMBL237900__2
   41    43     0     0     0
SMALL
USER_CHARGES

@<TRIPOS>ATOM
      1 C1         -0.0171    1.4096    0.0098 C.2       1 <0>        -0.2030
      2 C2          1.2649    1.8168   -0.0003 C.2       1 <0>        -0.0351
      3 O1          2.0550    0.7308   -0.0136 O.3       1 <0>        -0.1743
      4 C3          1.2946   -0.3762   -0.0123 C.2       1 <0>        -0.0222
      5 C4          0.0021   -0.0041    0.0020 C.2       1 <0>        -0.2067
      6 C5         -1.1957   -0.9185    0.0085 C.3       1 <0>         0.1896
      7 N1         -1.5971   -1.2074   -1.3705 N.pl3     1 <0>        -0.6109
      8 C6         -1.0280   -2.3603   -2.0727 C.3       1 <0>         0.0851
      9 C7         -1.9062   -3.5895   -1.8305 C.3       1 <0>         0.4270
     10 F1         -3.1970   -3.3421   -2.3099 F         1 <0>        -0.1715
     11 F2         -1.3627   -4.6904   -2.5012 F         1 <0>        -0.1825
     12 F3         -1.9620   -3.8599   -0.4590 F         1 <0>        -0.1841
     13 C8         -2.5221   -0.3840   -2.0155 C.2       1 <0>         0.1981
     14 C9         -2.8965   -0.6490   -3.2778 C.2       1 <0>        -0.2677
     15 C10        -3.9049    0.2580   -3.9250 C.3       1 <0>        -0.0018
     16 C11        -4.9547    0.6530   -2.8821 C.3       1 <0>         0.1699
     17 C12        -4.2623    1.2891   -1.7107 C.2       1 <0>        -0.1305
     18 C13        -3.0983    0.7797   -1.3106 C.2       1 <0>        -0.1120
     19 N2         -5.9351    1.5387   -3.5021 N.am      1 <0>        -0.7171
     20 C14        -6.3156    1.2886   -4.7778 C.2       1 <0>         0.5545
     21 O2         -7.1012    2.0285   -5.3385 O.2       1 <0>        -0.5126
     22 C15        -5.7711    0.1125   -5.4820 C.2       1 <0>        -0.1107
     23 C16        -4.5985   -0.3978   -5.0864 C.2       1 <0>        -0.1475
     24 C17        -3.9936   -1.5897   -5.7824 C.3       1 <0>         0.5069
     25 F4         -4.8366   -2.0011   -6.8203 F         1 <0>        -0.1734
     26 F5         -2.7449   -1.2393   -6.3069 F         1 <0>        -0.1704
     27 F6         -3.8377   -2.6353   -4.8660 F         1 <0>        -0.1618
     28 H1         -0.8929    2.0413    0.0255 H         1 <0>         0.1468
     29 H2          1.6017    2.8429    0.0015 H         1 <0>         0.2026
     30 H3          1.6591   -1.3928   -0.0218 H         1 <0>         0.1998
     31 H4         -0.9396   -1.8491    0.5150 H         1 <0>         0.0911
     32 H5         -2.0196   -0.4344    0.5329 H         1 <0>         0.0926
     33 H6         -0.9845   -2.1497   -3.1413 H         1 <0>         0.1212
     34 H7         -0.0222   -2.5530   -1.6993 H         1 <0>         0.1193
     35 H8         -2.4842   -1.4915   -3.8132 H         1 <0>         0.1310
     36 H9         -3.4045    1.1627   -4.2701 H         1 <0>         0.1081
     37 H10        -5.4701   -0.2454   -2.5426 H         1 <0>         0.0950
     38 H11        -4.6996    2.1363   -1.2033 H         1 <0>         0.1417
     39 H12        -2.5756    1.2198   -0.4743 H         1 <0>         0.1351
     40 H13        -6.3054    2.2894   -3.0120 H         1 <0>         0.4133
     41 H14        -6.3110   -0.3307   -6.3058 H         1 <0>         0.1669
@<TRIPOS>BOND
     1    1    5 1
     2    1    2 2
     3    1   28 1
     4    2    3 1
     5    2   29 1
     6    3    4 1
     7    4    5 2
     8    4   30 1
     9    5    6 1
    10    6    7 1
    11    6   31 1
    12    6   32 1
    13    7    8 1
    14    7   13 1
    15    8    9 1
    16    8   33 1
    17    8   34 1
    18    9   10 1
    19    9   11 1
    20    9   12 1
    21   13   18 1
    22   13   14 2
    23   14   15 1
    24   14   35 1
    25   15   23 1
    26   15   16 1
    27   15   36 1
    28   16   17 1
    29   16   19 1
    30   16   37 1
    31   17   18 2
    32   17   38 1
    33   18   39 1
    34   19   20 am
    35   19   40 1
    36   20   21 2
    37   20   22 1
    38   22   23 2
    39   22   41 1
    40   23   24 1
    41   24   25 1
    42   24   26 1
    43   24   27 1
@<TRIPOS>MOLECULE
CHEMBL237900__3
   42    44     0     0     0
SMALL
USER_CHARGES

@<TRIPOS>ATOM
      1 C1         -0.2152    1.5395   -0.0307 C.2       1 <0>        -0.2103
      2 C2          1.0557    1.9656    0.0818 C.2       1 <0>        -0.0073
      3 O1          1.8483    0.8954    0.2553 O.3       1 <0>        -0.1586
      4 C3          1.1005   -0.2202    0.2561 C.2       1 <0>         0.0191
      5 C4         -0.1863    0.1305    0.0817 C.2       1 <0>        -0.2457
      6 C5         -1.3701   -0.8000    0.0183 C.3       1 <0>         0.1147
      7 N1         -1.5971   -1.2074   -1.3705 N.pl3     1 <0>        -0.4230
      8 C6         -1.9493   -0.2055   -2.3796 C.3       1 <0>        -0.0021
      9 C7         -3.3264    0.3789   -2.0591 C.3       1 <0>         0.4515
     10 F1         -3.2956    0.9799   -0.7961 F         1 <0>        -0.1645
     11 F2         -3.6628    1.3358   -3.0227 F         1 <0>        -0.1477
     12 F3         -4.2803   -0.6445   -2.0653 F         1 <0>        -0.1679
     13 C8         -1.4864   -2.4537   -1.7062 C.2       1 <0>         0.3675
     14 C9         -1.8653   -2.9203   -3.0996 C.3       1 <0>        -0.1445
     15 C10        -2.5510   -4.2790   -2.9363 C.3       1 <0>        -0.0533
     16 C11        -1.5510   -5.2617   -2.3287 C.3       1 <0>         0.1419
     17 C12        -1.0257   -4.7498   -1.0260 C.2       1 <0>         0.0311
     18 C13        -0.9841   -3.4515   -0.7474 C.2       1 <0>        -0.2194
     19 N2         -2.1727   -6.5767   -2.2063 N.am      1 <0>        -0.7200
     20 C14        -3.0126   -6.9926   -3.1831 C.2       1 <0>         0.5503
     21 O2         -3.5759   -8.0664   -3.0902 O.2       1 <0>        -0.4766
     22 C15        -3.2392   -6.1345   -4.3608 C.2       1 <0>        -0.0645
     23 C16        -3.0270   -4.8179   -4.2577 C.2       1 <0>        -0.1852
     24 C17        -3.2585   -3.9010   -5.4310 C.3       1 <0>         0.5079
     25 F4         -3.6953   -4.6498   -6.5290 F         1 <0>        -0.1589
     26 F5         -4.2311   -2.9525   -5.0968 F         1 <0>        -0.1679
     27 F6         -2.0640   -3.2493   -5.7564 F         1 <0>        -0.1720
     28 H1         -1.0903    2.1559   -0.1745 H         1 <0>         0.1588
     29 H2          1.3832    2.9939    0.0391 H         1 <0>         0.2155
     30 H3          1.4699   -1.2280    0.3758 H         1 <0>         0.2083
     31 H4         -1.1722   -1.6817    0.6279 H         1 <0>         0.1386
     32 H5         -2.2552   -0.2882    0.3961 H         1 <0>         0.1450
     33 H6         -1.2061    0.5919   -2.3747 H         1 <0>         0.1748
     34 H7         -1.9733   -0.6737   -3.3636 H         1 <0>         0.1650
     35 H8         -2.5523   -2.2084   -3.5574 H         1 <0>         0.1264
     36 H9         -3.4006   -4.1759   -2.2613 H         1 <0>         0.1289
     37 H10        -0.7119   -5.3588   -3.0176 H         1 <0>         0.1275
     38 H11        -0.6653   -5.4554   -0.2921 H         1 <0>         0.1753
     39 H12        -0.5796   -3.1229    0.1986 H         1 <0>         0.1750
     40 H13        -1.9873   -7.1417   -1.4399 H         1 <0>         0.4231
     41 H14        -3.5721   -6.5635   -5.2943 H         1 <0>         0.1802
     42 H15        -0.9711   -3.0252   -3.7139 H         1 <0>         0.1633
@<TRIPOS>BOND
     1    1    5 1
     2    1    2 2
     3    1   28 1
     4    2    3 1
     5    2   29 1
     6    3    4 1
     7    4    5 2
     8    4   30 1
     9    5    6 1
    10    6    7 1
    11    6   31 1
    12    6   32 1
    13    7    8 1
    14    7   13 2
    15    8    9 1
    16    8   33 1
    17    8   34 1
    18    9   10 1
    19    9   11 1
    20    9   12 1
    21   13   18 1
    22   13   14 1
    23   14   15 1
    24   14   35 1
    25   14   42 1
    26   15   23 1
    27   15   16 1
    28   15   36 1
    29   16   17 1
    30   16   19 1
    31   16   37 1
    32   17   18 2
    33   17   38 1
    34   18   39 1
    35   19   20 am
    36   19   40 1
    37   20   21 2
    38   20   22 1
    39   22   23 2
    40   22   41 1
    41   23   24 1
    42   24   25 1
    43   24   26 1
    44   24   27 1
@<TRIPOS>MOLECULE
CHEMBL237900__4
   41    43     0     0     0
SMALL
USER_CHARGES

@<TRIPOS>ATOM
      1 C1         -0.0171    1.4096    0.0098 C.2       1 <0>        -0.1984
      2 C2          1.2649    1.8168   -0.0003 C.2       1 <0>        -0.0379
      3 O1          2.0550    0.7308   -0.0136 O.3       1 <0>        -0.1746
      4 C3          1.2946   -0.3762   -0.0123 C.2       1 <0>        -0.0231
      5 C4          0.0021   -0.0041    0.0020 C.2       1 <0>        -0.2052
      6 C5         -1.1957   -0.9185    0.0085 C.3       1 <0>         0.1894
      7 N1         -1.5971   -1.2074   -1.3705 N.pl3     1 <0>        -0.6105
      8 C6         -1.0280   -2.3603   -2.0727 C.3       1 <0>         0.0846
      9 C7         -1.9062   -3.5895   -1.8305 C.3       1 <0>         0.4269
     10 F1         -3.1970   -3.3421   -2.3099 F         1 <0>        -0.1745
     11 F2         -1.3627   -4.6904   -2.5012 F         1 <0>        -0.1821
     12 F3         -1.9620   -3.8599   -0.4590 F         1 <0>        -0.1834
     13 C8         -2.5221   -0.3840   -2.0155 C.2       1 <0>         0.1973
     14 C9         -2.8965   -0.6490   -3.2778 C.2       1 <0>        -0.2679
     15 C10        -3.8850    0.2732   -3.9341 C.3       1 <0>        -0.0029
     16 C11        -3.5711    1.7125   -3.5150 C.3       1 <0>         0.1718
     17 C12        -3.5957    1.7996   -2.0156 C.2       1 <0>        -0.1331
     18 C13        -3.0983    0.7797   -1.3106 C.2       1 <0>        -0.1067
     19 N2         -4.5308    2.6140   -4.1444 N.am      1 <0>        -0.7172
     20 C14        -4.9241    2.3541   -5.4143 C.2       1 <0>         0.5544
     21 O2         -5.7520    3.0615   -5.9556 O.2       1 <0>        -0.5121
     22 C15        -4.3418    1.2070   -6.1358 C.2       1 <0>        -0.1101
     23 C16        -3.8384    0.1842   -5.4340 C.2       1 <0>        -0.1481
     24 C17        -3.2444   -1.0163   -6.1247 C.3       1 <0>         0.5085
     25 F4         -3.3266   -0.8450   -7.5107 F         1 <0>        -0.1729
     26 F5         -1.9034   -1.1534   -5.7504 F         1 <0>        -0.1687
     27 F6         -3.9518   -2.1649   -5.7540 F         1 <0>        -0.1667
     28 H1         -0.8929    2.0413    0.0255 H         1 <0>         0.1467
     29 H2          1.6017    2.8429    0.0015 H         1 <0>         0.2018
     30 H3          1.6591   -1.3928   -0.0218 H         1 <0>         0.1993
     31 H4         -0.9396   -1.8491    0.5150 H         1 <0>         0.0905
     32 H5         -2.0196   -0.4344    0.5329 H         1 <0>         0.0921
     33 H6         -0.9845   -2.1497   -3.1413 H         1 <0>         0.1225
     34 H7         -0.0222   -2.5530   -1.6993 H         1 <0>         0.1201
     35 H8         -2.4976   -1.5018   -3.8071 H         1 <0>         0.1307
     36 H9         -4.8895    0.0256   -3.5909 H         1 <0>         0.1094
     37 H10        -2.5732    1.9729   -3.8677 H         1 <0>         0.0933
     38 H11        -4.0093    2.6647   -1.5187 H         1 <0>         0.1412
     39 H12        -3.1135    0.8061   -0.2311 H         1 <0>         0.1352
     40 H13        -4.8792    3.3815   -3.6643 H         1 <0>         0.4134
     41 H14        -4.3214    1.1927   -7.2155 H         1 <0>         0.1670
@<TRIPOS>BOND
     1    1    5 1
     2    1    2 2
     3    1   28 1
     4    2    3 1
     5    2   29 1
     6    3    4 1
     7    4    5 2
     8    4   30 1
     9    5    6 1
    10    6    7 1
    11    6   31 1
    12    6   32 1
    13    7    8 1
    14    7   13 1
    15    8    9 1
    16    8   33 1
    17    8   34 1
    18    9   10 1
    19    9   11 1
    20    9   12 1
    21   13   18 1
    22   13   14 2
    23   14   15 1
    24   14   35 1
    25   15   23 1
    26   15   16 1
    27   15   36 1
    28   16   17 1
    29   16   19 1
    30   16   37 1
    31   17   18 2
    32   17   38 1
    33   18   39 1
    34   19   20 am
    35   19   40 1
    36   20   21 2
    37   20   22 1
    38   22   23 2
    39   22   41 1
    40   23   24 1
    41   24   25 1
    42   24   26 1
    43   24   27 1
@<TRIPOS>MOLECULE
CHEMBL237900__5
   42    44     0     0     0
SMALL
USER_CHARGES

@<TRIPOS>ATOM
      1 C1         -2.9594   -1.4324    1.6863 C.2       1 <0>        -0.2056
      2 C2         -3.8707   -0.6910    2.3414 C.2       1 <0>        -0.0090
      3 O1         -3.7138    0.5925    1.9785 O.3       1 <0>        -0.1575
      4 C3         -2.7080    0.6879    1.0935 C.2       1 <0>         0.0150
      5 C4         -2.2099   -0.5436    0.8818 C.2       1 <0>        -0.2452
      6 C5         -1.0715   -0.9062   -0.0366 C.3       1 <0>         0.1138
      7 N1         -1.5971   -1.2074   -1.3705 N.pl3     1 <0>        -0.4247
      8 C6         -2.2293   -0.1509   -2.1644 C.3       1 <0>        -0.0041
      9 C7         -1.1838    0.9023   -2.5365 C.3       1 <0>         0.4513
     10 F1         -0.1645    0.3036   -3.2846 F         1 <0>        -0.1661
     11 F2         -1.7876    1.9112   -3.2947 F         1 <0>        -0.1465
     12 F3         -0.6434    1.4552   -1.3706 F         1 <0>        -0.1671
     13 C8         -1.5028   -2.4080   -1.8479 C.2       1 <0>         0.3716
     14 C9         -1.8886   -2.7058   -3.2850 C.3       1 <0>        -0.1448
     15 C10        -0.8679   -3.7169   -3.8131 C.3       1 <0>        -0.0532
     16 C11        -0.9742   -4.9970   -2.9855 C.3       1 <0>         0.1420
     17 C12        -0.7654   -4.7110   -1.5331 C.2       1 <0>         0.0296
     18 C13        -1.0128   -3.5161   -1.0117 C.2       1 <0>        -0.2166
     19 N2         -0.0388   -5.9910   -3.5028 N.am      1 <0>        -0.7197
     20 C14         0.1510   -6.0713   -4.8407 C.2       1 <0>         0.5502
     21 O2          0.9528   -6.8626   -5.2991 O.2       1 <0>        -0.4768
     22 C15        -0.6216   -5.1928   -5.7384 C.2       1 <0>        -0.0645
     23 C16        -1.1168   -4.0462   -5.2597 C.2       1 <0>        -0.1853
     24 C17        -1.9017   -3.1116   -6.1438 C.3       1 <0>         0.5080
     25 F4         -1.9869   -3.6499   -7.4322 F         1 <0>        -0.1589
     26 F5         -3.1890   -2.9465   -5.6213 F         1 <0>        -0.1721
     27 F6         -1.2580   -1.8707   -6.1984 F         1 <0>        -0.1680
     28 H1         -2.8233   -2.5010    1.7635 H         1 <0>         0.1573
     29 H2         -4.6045   -1.0645    3.0403 H         1 <0>         0.2147
     30 H3         -2.3589    1.5987    0.6299 H         1 <0>         0.2088
     31 H4         -0.3757   -0.0697   -0.1006 H         1 <0>         0.1436
     32 H5         -0.5528   -1.7810    0.3556 H         1 <0>         0.1408
     33 H6         -2.6504   -0.5818   -3.0728 H         1 <0>         0.1670
     34 H7         -3.0236    0.3156   -1.5816 H         1 <0>         0.1725
     35 H8         -2.8905   -3.1336   -3.3212 H         1 <0>         0.1633
     36 H9          0.1361   -3.3071   -3.7037 H         1 <0>         0.1289
     37 H10        -1.9803   -5.3974   -3.1106 H         1 <0>         0.1268
     38 H11        -0.3981   -5.4980   -0.8910 H         1 <0>         0.1750
     39 H12        -0.8563   -3.3555    0.0448 H         1 <0>         0.1754
     40 H13         0.4378   -6.5824   -2.8995 H         1 <0>         0.4231
     41 H14        -0.7852   -5.4713   -6.7690 H         1 <0>         0.1802
     42 H15        -1.8502   -1.7924   -3.8785 H         1 <0>         0.1265
@<TRIPOS>BOND
     1    1    5 1
     2    1    2 2
     3    1   28 1
     4    2    3 1
     5    2   29 1
     6    3    4 1
     7    4    5 2
     8    4   30 1
     9    5    6 1
    10    6    7 1
    11    6   31 1
    12    6   32 1
    13    7    8 1
    14    7   13 2
    15    8    9 1
    16    8   33 1
    17    8   34 1
    18    9   10 1
    19    9   11 1
    20    9   12 1
    21   13   18 1
    22   13   14 1
    23   14   15 1
    24   14   35 1
    25   14   42 1
    26   15   23 1
    27   15   16 1
    28   15   36 1
    29   16   17 1
    30   16   19 1
    31   16   37 1
    32   17   18 2
    33   17   38 1
    34   18   39 1
    35   19   20 am
    36   19   40 1
    37   20   21 2
    38   20   22 1
    39   22   23 2
    40   22   41 1
    41   23   24 1
    42   24   25 1
    43   24   26 1
    44   24   27 1
@<TRIPOS>MOLECULE
CHEMBL237900__6
   41    43     0     0     0
SMALL
USER_CHARGES

@<TRIPOS>ATOM
      1 C1         -0.0171    1.4096    0.0098 C.2       1 <0>        -0.2003
      2 C2          1.2649    1.8168   -0.0003 C.2       1 <0>        -0.0354
      3 O1          2.0550    0.7308   -0.0136 O.3       1 <0>        -0.1742
      4 C3          1.2946   -0.3762   -0.0123 C.2       1 <0>        -0.0226
      5 C4          0.0021   -0.0041    0.0020 C.2       1 <0>        -0.2053
      6 C5         -1.1957   -0.9185    0.0085 C.3       1 <0>         0.1893
      7 N1         -1.5971   -1.2074   -1.3705 N.pl3     1 <0>        -0.6099
      8 C6         -1.0280   -2.3603   -2.0727 C.3       1 <0>         0.0852
      9 C7         -1.9062   -3.5895   -1.8305 C.3       1 <0>         0.4283
     10 F1         -3.1970   -3.3421   -2.3099 F         1 <0>        -0.1760
     11 F2         -1.3627   -4.6904   -2.5012 F         1 <0>        -0.1825
     12 F3         -1.9620   -3.8599   -0.4590 F         1 <0>        -0.1832
     13 C8         -2.5221   -0.3840   -2.0155 C.2       1 <0>         0.2183
     14 C9         -2.8927   -0.6490   -3.2697 C.2       1 <0>        -0.2793
     15 C10        -3.8683    0.2468   -3.9831 C.3       1 <0>         0.0058
     16 C11        -4.8728    0.8389   -3.0082 C.3       1 <0>         0.1760
     17 C12        -4.1849    1.3653   -1.7791 C.2       1 <0>        -0.1416
     18 C13        -3.0957    0.7766   -1.3102 C.2       1 <0>        -0.1163
     19 N2         -5.6524    1.9033   -3.6357 N.am      1 <0>        -0.7154
     20 C14        -5.0855    2.7362   -4.5282 C.2       1 <0>         0.5554
     21 O2         -5.7108    3.6854   -4.9608 O.2       1 <0>        -0.5169
     22 C15        -3.7059    2.4932   -4.9778 C.2       1 <0>        -0.1197
     23 C16        -3.1228    1.3293   -4.7140 C.2       1 <0>        -0.1400
     24 C17        -1.7006    1.0909   -5.1516 C.3       1 <0>         0.5041
     25 F4         -1.2174    2.2288   -5.8066 F         1 <0>        -0.1774
     26 F5         -0.9062    0.8251   -4.0311 F         1 <0>        -0.1623
     27 F6         -1.6580   -0.0024   -6.0235 F         1 <0>        -0.1727
     28 H1         -0.8929    2.0413    0.0255 H         1 <0>         0.1456
     29 H2          1.6017    2.8429    0.0015 H         1 <0>         0.2019
     30 H3          1.6591   -1.3928   -0.0218 H         1 <0>         0.1991
     31 H4         -0.9396   -1.8491    0.5150 H         1 <0>         0.0908
     32 H5         -2.0196   -0.4344    0.5329 H         1 <0>         0.0923
     33 H6         -0.9845   -2.1497   -3.1413 H         1 <0>         0.1227
     34 H7         -0.0222   -2.5530   -1.6993 H         1 <0>         0.1194
     35 H8         -2.4891   -1.5130   -3.7765 H         1 <0>         0.1266
     36 H9         -4.4201   -0.3485   -4.7106 H         1 <0>         0.1138
     37 H10        -5.5631    0.0517   -2.7051 H         1 <0>         0.1172
     38 H11        -4.5860    2.2301   -1.2715 H         1 <0>         0.1327
     39 H12        -2.6255    1.1499   -0.4125 H         1 <0>         0.1307
     40 H13        -6.5888    2.0108   -3.4068 H         1 <0>         0.4138
     41 H14        -3.1697    3.2578   -5.5204 H         1 <0>         0.1624
@<TRIPOS>BOND
     1    1    5 1
     2    1    2 2
     3    1   28 1
     4    2    3 1
     5    2   29 1
     6    3    4 1
     7    4    5 2
     8    4   30 1
     9    5    6 1
    10    6    7 1
    11    6   31 1
    12    6   32 1
    13    7    8 1
    14    7   13 1
    15    8    9 1
    16    8   33 1
    17    8   34 1
    18    9   10 1
    19    9   11 1
    20    9   12 1
    21   13   18 1
    22   13   14 2
    23   14   15 1
    24   14   35 1
    25   15   23 1
    26   15   16 1
    27   15   36 1
    28   16   17 1
    29   16   19 1
    30   16   37 1
    31   17   18 2
    32   17   38 1
    33   18   39 1
    34   19   20 am
    35   19   40 1
    36   20   21 2
    37   20   22 1
    38   22   23 2
    39   22   41 1
    40   23   24 1
    41   24   25 1
    42   24   26 1
    43   24   27 1
@<TRIPOS>MOLECULE
CHEMBL237900__7
   42    44     0     0     0
SMALL
USER_CHARGES

@<TRIPOS>ATOM
      1 C1         -2.9637   -1.4320    1.6844 C.2       1 <0>        -0.2060
      2 C2         -3.8750   -0.6897    2.3386 C.2       1 <0>        -0.0084
      3 O1         -3.7160    0.5938    1.9764 O.3       1 <0>        -0.1573
      4 C3         -2.7090    0.6883    1.0927 C.2       1 <0>         0.0156
      5 C4         -2.2121   -0.5437    0.8813 C.2       1 <0>        -0.2460
      6 C5         -1.0729   -0.9074   -0.0358 C.3       1 <0>         0.1136
      7 N1         -1.5971   -1.2074   -1.3705 N.pl3     1 <0>        -0.4207
      8 C6         -2.2287   -0.1503   -2.1641 C.3       1 <0>        -0.0055
      9 C7         -1.1826    0.9025   -2.5357 C.3       1 <0>         0.4520
     10 F1         -0.1634    0.3036   -3.2838 F         1 <0>        -0.1656
     11 F2         -1.7858    1.9120   -3.2935 F         1 <0>        -0.1462
     12 F3         -0.6421    1.4548   -1.3694 F         1 <0>        -0.1671
     13 C8         -1.5021   -2.4075   -1.8489 C.2       1 <0>         0.3709
     14 C9         -1.8836   -2.7124   -3.2826 C.3       1 <0>        -0.1414
     15 C10        -0.8155   -3.6536   -3.8545 C.3       1 <0>        -0.0538
     16 C11        -0.7795   -4.9411   -3.0457 C.3       1 <0>         0.1467
     17 C12        -0.6872   -4.6777   -1.5743 C.2       1 <0>         0.0147
     18 C13        -1.0134   -3.5225   -1.0197 C.2       1 <0>        -0.2017
     19 N2         -1.9423   -5.7762   -3.3383 N.am      1 <0>        -0.7184
     20 C14        -2.4452   -5.8383   -4.5855 C.2       1 <0>         0.5496
     21 O2         -3.3436   -6.6161   -4.8440 O.2       1 <0>        -0.4795
     22 C15        -1.9032   -4.9603   -5.6343 C.2       1 <0>        -0.0680
     23 C16        -1.1246   -3.9372   -5.2993 C.2       1 <0>        -0.1780
     24 C17        -0.5475   -3.0533   -6.3748 C.3       1 <0>         0.5058
     25 F4         -0.9696   -3.5081   -7.6286 F         1 <0>        -0.1621
     26 F5         -0.9865   -1.7388   -6.1835 F         1 <0>        -0.1735
     27 F6          0.8495   -3.0924   -6.3106 F         1 <0>        -0.1641
     28 H1         -2.8290   -2.5008    1.7614 H         1 <0>         0.1571
     29 H2         -4.6101   -1.0626    3.0364 H         1 <0>         0.2150
     30 H3         -2.3582    1.5988    0.6300 H         1 <0>         0.2090
     31 H4         -0.3760   -0.0716   -0.0985 H         1 <0>         0.1447
     32 H5         -0.5558   -1.7829    0.3568 H         1 <0>         0.1411
     33 H6         -2.6498   -0.5806   -3.0727 H         1 <0>         0.1679
     34 H7         -3.0228    0.3164   -1.5812 H         1 <0>         0.1723
     35 H8         -2.8587   -3.1987   -3.3107 H         1 <0>         0.1522
     36 H9          0.1606   -3.1737   -3.7839 H         1 <0>         0.1330
     37 H10         0.1066   -5.5016   -3.3437 H         1 <0>         0.1250
     38 H11        -0.3315   -5.4712   -0.9336 H         1 <0>         0.1748
     39 H12        -0.9248   -3.3977    0.0494 H         1 <0>         0.1760
     40 H13        -2.3558   -6.2904   -2.6273 H         1 <0>         0.4201
     41 H14        -2.1369   -5.1468   -6.6721 H         1 <0>         0.1791
     42 H15        -1.9124   -1.7897   -3.8622 H         1 <0>         0.1272
@<TRIPOS>BOND
     1    1    5 1
     2    1    2 2
     3    1   28 1
     4    2    3 1
     5    2   29 1
     6    3    4 1
     7    4    5 2
     8    4   30 1
     9    5    6 1
    10    6    7 1
    11    6   31 1
    12    6   32 1
    13    7    8 1
    14    7   13 2
    15    8    9 1
    16    8   33 1
    17    8   34 1
    18    9   10 1
    19    9   11 1
    20    9   12 1
    21   13   18 1
    22   13   14 1
    23   14   15 1
    24   14   35 1
    25   14   42 1
    26   15   23 1
    27   15   16 1
    28   15   36 1
    29   16   17 1
    30   16   19 1
    31   16   37 1
    32   17   18 2
    33   17   38 1
    34   18   39 1
    35   19   20 am
    36   19   40 1
    37   20   21 2
    38   20   22 1
    39   22   23 2
    40   22   41 1
    41   23   24 1
    42   24   25 1
    43   24   26 1
    44   24   27 1
@<TRIPOS>MOLECULE
CHEMBL559485
   61    65     0     0     0
SMALL
USER_CHARGES

@<TRIPOS>ATOM
      1 C1         -0.0187    1.5258    0.0104 C.3       1 <0>        -0.1276
      2 C2          0.0021   -0.0041    0.0020 C.3       1 <0>        -0.0395
      3 C3          0.5861   -0.5688   -1.2951 C.3       1 <0>        -0.1091
      4 C4          2.0964   -0.3526   -1.3435 C.3       1 <0>        -0.1134
      5 C5          2.7396   -1.1172   -0.1817 C.3       1 <0>        -0.0619
      6 H1          2.4678   -2.1711   -0.2421 H         1 <0>         0.0748
      7 C6          2.2268   -0.5301    1.1315 C.3       1 <0>        -0.0669
      8 H2          2.5192    0.5186    1.1843 H         1 <0>         0.0717
      9 C7          0.7333   -0.5878    1.2245 C.3       1 <0>        -0.0776
     10 H3          0.4184   -0.0421    2.1140 H         1 <0>         0.0731
     11 C8          0.2134   -2.0268    1.3341 C.3       1 <0>        -0.0638
     12 C9         -1.1491   -2.0355    0.6649 C.2       1 <0>        -0.0981
     13 C10        -1.9547   -3.0805    0.5333 C.2       1 <0>        -0.1259
     14 C11        -1.5495   -4.3975    1.0669 C.ar      1 <0>         0.1615
     15 C12        -2.3987   -5.4949    0.9205 C.ar      1 <0>        -0.1643
     16 C13        -2.0048   -6.7213    1.4251 C.ar      1 <0>        -0.0738
     17 C14        -0.7739   -6.8124    2.0604 C.ar      1 <0>        -0.1775
     18 C15         0.0181   -5.6845    2.1707 C.ar      1 <0>         0.1039
     19 N1         -0.3774   -4.5288    1.6773 N.ar      1 <0>        -0.4726
     20 C16        -1.4174   -0.6220    0.1736 C.3       1 <0>         0.1326
     21 H4         -1.9427   -0.6429   -0.7812 H         1 <0>         0.0622
     22 O1         -2.1684    0.1109    1.1436 O.3       1 <0>        -0.5479
     23 C17         2.8667   -1.2788    2.3043 C.3       1 <0>        -0.1218
     24 C18         4.3855   -1.1105    2.2408 C.3       1 <0>        -0.1268
     25 C19         4.9159   -1.6693    0.9246 C.3       1 <0>         0.1588
     26 H5          5.9924   -1.5035    0.8813 H         1 <0>         0.0713
     27 C20         4.2620   -0.9731   -0.2687 C.3       1 <0>        -0.0470
     28 C21         4.7350   -1.6225   -1.5488 C.2       1 <0>        -0.0826
     29 C22         4.9173   -2.9428   -1.5765 C.2       1 <0>        -0.1977
     30 C23         4.6415   -3.7311   -0.3615 C.2       1 <0>         0.5481
     31 O2          4.3955   -4.9193   -0.4420 O.2       1 <0>        -0.5364
     32 N2          4.6567   -3.1054    0.8341 N.am      1 <0>        -0.6061
     33 C24         4.4147   -3.8876    2.0490 C.3       1 <0>         0.0784
     34 C25         4.6401    0.5094   -0.2568 C.3       1 <0>        -0.1434
     35 H6          1.0039    1.9031    0.0027 H         1 <0>         0.0563
     36 H7         -0.5459    1.8868   -0.8726 H         1 <0>         0.0534
     37 H8         -0.5289    1.8773    0.9072 H         1 <0>         0.0665
     38 H9          0.3740   -1.6365   -1.3497 H         1 <0>         0.0642
     39 H10         0.1239   -0.0673   -2.1454 H         1 <0>         0.0636
     40 H11         2.4891   -0.7264   -2.2892 H         1 <0>         0.0645
     41 H12         2.3169    0.7106   -1.2481 H         1 <0>         0.0715
     42 H13         0.8886   -2.7097    0.8186 H         1 <0>         0.0851
     43 H14         0.1183   -2.3123    2.3817 H         1 <0>         0.0809
     44 H15        -2.9070   -2.9691    0.0362 H         1 <0>         0.1287
     45 H16        -3.3502   -5.3883    0.4206 H         1 <0>         0.1334
     46 H17        -2.6409   -7.5886    1.3272 H         1 <0>         0.1341
     47 H18        -0.4381   -7.7557    2.4653 H         1 <0>         0.1337
     48 H19         0.9760   -5.7526    2.6649 H         1 <0>         0.1540
     49 H20        -3.0610   -0.2310    1.2903 H         1 <0>         0.3772
     50 H21         2.4942   -0.8704    3.2437 H         1 <0>         0.0662
     51 H22         2.6148   -2.3374    2.2414 H         1 <0>         0.0767
     52 H23         4.6356   -0.0520    2.3116 H         1 <0>         0.0828
     53 H24         4.8441   -1.6458    3.0722 H         1 <0>         0.0747
     54 H25         4.9222   -1.0253   -2.4290 H         1 <0>         0.1315
     55 H26         5.2623   -3.4286   -2.4773 H         1 <0>         0.1425
     56 H27         3.3474   -3.8947    2.2699 H         1 <0>         0.0606
     57 H28         4.7614   -4.9099    1.8979 H         1 <0>         0.0742
     58 H29         4.9554   -3.4401    2.8830 H         1 <0>         0.0711
     59 H30         4.2857    0.9673    0.6667 H         1 <0>         0.0692
     60 H31         5.7238    0.6084   -0.3188 H         1 <0>         0.0603
     61 H32         4.1802    1.0085   -1.1097 H         1 <0>         0.0685
@<TRIPOS>BOND
     1    1    2 1
     2    1   35 1
     3    1   36 1
     4    1   37 1
     5    2    9 1
     6    2   20 1
     7    2    3 1
     8    3    4 1
     9    3   38 1
    10    3   39 1
    11    4    5 1
    12    4   40 1
    13    4   41 1
    14    5    6 1
    15    5   27 1
    16    5    7 1
    17    7    8 1
    18    7    9 1
    19    7   23 1
    20    9   10 1
    21    9   11 1
    22   11   12 1
    23   11   42 1
    24   11   43 1
    25   12   13 2
    26   12   20 1
    27   13   14 1
    28   13   44 1
    29   14   19 ar
    30   14   15 ar
    31   15   16 ar
    32   15   45 1
    33   16   17 ar
    34   16   46 1
    35   17   18 ar
    36   17   47 1
    37   18   19 ar
    38   18   48 1
    39   20   21 1
    40   20   22 1
    41   22   49 1
    42   23   24 1
    43   23   50 1
    44   23   51 1
    45   24   25 1
    46   24   52 1
    47   24   53 1
    48   25   26 1
    49   25   32 1
    50   25   27 1
    51   27   28 1
    52   27   34 1
    53   28   29 2
    54   28   54 1
    55   29   30 1
    56   29   55 1
    57   30   31 2
    58   30   32 am
    59   32   33 1
    60   33   56 1
    61   33   57 1
    62   33   58 1
    63   34   59 1
    64   34   60 1
    65   34   61 1
@<TRIPOS>MOLECULE
CHEMBL221174
   47    49     0     0     0
SMALL
USER_CHARGES

@<TRIPOS>ATOM
      1 C1         -0.0187    1.5258    0.0104 C.3       1 <0>        -0.1404
      2 C2          0.0021   -0.0041    0.0020 C.3       1 <0>         0.2027
      3 C3          0.7421   -0.5109    1.2415 C.3       1 <0>         0.0457
      4 O1          0.0732   -0.0501    2.4172 O.3       1 <0>        -0.3290
      5 C4          0.6013   -0.4114    3.6027 C.2       1 <0>         0.5013
      6 O2          1.6022   -1.0989    3.6374 O.2       1 <0>        -0.4781
      7 C5         -0.0367    0.0284    4.8604 C.ar      1 <0>        -0.0815
      8 C6         -1.1907    0.8140    4.8241 C.ar      1 <0>        -0.0602
      9 C7         -1.7813    1.2211    6.0021 C.ar      1 <0>        -0.1005
     10 C8         -1.2328    0.8529    7.2181 C.ar      1 <0>        -0.0814
     11 C9         -0.0895    0.0751    7.2614 C.ar      1 <0>        -0.0827
     12 C10         0.5079   -0.3443    6.0906 C.ar      1 <0>        -0.1249
     13 C11         1.7494   -1.1971    6.1396 C.3       1 <0>         0.5126
     14 F1          2.0990   -1.4356    7.4731 F         1 <0>        -0.1792
     15 F2          1.5041   -2.4153    5.4968 F         1 <0>        -0.1653
     16 F3          2.7977   -0.5322    5.4945 F         1 <0>        -0.1649
     17 C12         0.7074   -0.4901   -1.2379 C.2       1 <0>         0.0647
     18 C13         2.0242   -0.7341   -1.3297 C.2       1 <0>        -0.1636
     19 C14         2.2816   -1.1857   -2.6993 C.ar      1 <0>        -0.0919
     20 C15         3.4279   -1.5811   -3.3915 C.ar      1 <0>         0.0172
     21 C16         3.3333   -1.9570   -4.7016 C.ar      1 <0>        -0.0384
     22 C17         2.1061   -1.9486   -5.3508 C.ar      1 <0>        -0.1200
     23 C18         0.9627   -1.5621   -4.6869 C.ar      1 <0>        -0.0585
     24 C19         1.0357   -1.1759   -3.3523 C.ar      1 <0>         0.1316
     25 N1          0.0996   -0.7536   -2.4351 N.pl3     1 <0>        -0.5586
     26 H1         -0.8490   -0.6551   -2.6121 H         1 <0>         0.4308
     27 C20         2.0242   -2.3660   -6.7965 C.3       1 <0>         0.5177
     28 F4          0.6979   -2.2779   -7.2329 F         1 <0>        -0.1750
     29 F5          2.8272   -1.5225   -7.5716 F         1 <0>        -0.1590
     30 F6          2.4714   -3.6851   -6.9270 F         1 <0>        -0.1590
     31 N2          4.5489   -2.3760   -5.4349 N.pl3     1 <0>         0.0314
     32 O3          5.6201   -2.3847   -4.8743 O.2       1 <0>        -0.1454
     33 O4          4.4706   -2.7096   -6.5943 O.3       1 <0>        -0.1450
     34 O5         -1.3386   -0.4987    0.0122 O.3       1 <0>        -0.5399
     35 H2          1.0039    1.9031    0.0027 H         1 <0>         0.0813
     36 H3         -0.5459    1.8868   -0.8726 H         1 <0>         0.0705
     37 H4         -0.5289    1.8773    0.9072 H         1 <0>         0.0858
     38 H5          0.7568   -1.6008    1.2356 H         1 <0>         0.0832
     39 H6          1.7647   -0.1336    1.2338 H         1 <0>         0.0913
     40 H7         -1.6195    1.1024    3.8757 H         1 <0>         0.1520
     41 H8         -2.6735    1.8290    5.9755 H         1 <0>         0.1451
     42 H9         -1.6993    1.1744    8.1376 H         1 <0>         0.1456
     43 H10         0.3337   -0.2082    8.2137 H         1 <0>         0.1508
     44 H11         2.7553   -0.6190   -0.5432 H         1 <0>         0.1666
     45 H12         4.3860   -1.5894   -2.8932 H         1 <0>         0.1685
     46 H13         0.0128   -1.5590   -5.2007 H         1 <0>         0.1620
     47 H14        -1.4018   -1.4636    0.0076 H         1 <0>         0.3839
@<TRIPOS>BOND
     1    1    2 1
     2    1   35 1
     3    1   36 1
     4    1   37 1
     5    2    3 1
     6    2   17 1
     7    2   34 1
     8    3    4 1
     9    3   38 1
    10    3   39 1
    11    4    5 1
    12    5    6 2
    13    5    7 1
    14    7   12 ar
    15    7    8 ar
    16    8    9 ar
    17    8   40 1
    18    9   10 ar
    19    9   41 1
    20   10   11 ar
    21   10   42 1
    22   11   12 ar
    23   11   43 1
    24   12   13 1
    25   13   14 1
    26   13   15 1
    27   13   16 1
    28   17   25 1
    29   17   18 2
    30   18   19 1
    31   18   44 1
    32   19   24 ar
    33   19   20 ar
    34   20   21 ar
    35   20   45 1
    36   21   22 ar
    37   21   31 1
    38   22   23 ar
    39   22   27 1
    40   23   24 ar
    41   23   46 1
    42   24   25 1
    43   25   26 1
    44   27   28 1
    45   27   29 1
    46   27   30 1
    47   31   32 2
    48   31   33 1
    49   34   47 1
@<TRIPOS>MOLECULE
CHEMBL221174__1
   47    49     0     0     0
SMALL
USER_CHARGES

@<TRIPOS>ATOM
      1 C1         -0.0187    1.5258    0.0104 C.3       1 <0>        -0.1397
      2 C2          0.0021   -0.0041    0.0020 C.3       1 <0>         0.2025
      3 C3          0.7421   -0.5109    1.2415 C.3       1 <0>         0.0462
      4 O1          2.0438    0.0763    1.2925 O.3       1 <0>        -0.3295
      5 C4          2.8301   -0.2685    2.3305 C.2       1 <0>         0.5014
      6 O2          2.4219   -1.0463    3.1695 O.2       1 <0>        -0.4780
      7 C5          4.1888    0.2994    2.4486 C.ar      1 <0>        -0.0814
      8 C6          4.6591    1.1982    1.4889 C.ar      1 <0>        -0.0603
      9 C7          5.9286    1.7246    1.6052 C.ar      1 <0>        -0.1005
     10 C8          6.7358    1.3638    2.6698 C.ar      1 <0>        -0.0814
     11 C9          6.2764    0.4734    3.6238 C.ar      1 <0>        -0.0827
     12 C10         5.0063   -0.0558    3.5231 C.ar      1 <0>        -0.1249
     13 C11         4.5050   -1.0203    4.5669 C.3       1 <0>         0.5127
     14 F1          5.4965   -1.2177    5.5339 F         1 <0>        -0.1792
     15 F2          3.3590   -0.4960    5.1743 F         1 <0>        -0.1648
     16 F3          4.1942   -2.2426    3.9615 F         1 <0>        -0.1653
     17 C12        -1.4117   -0.5257    0.0127 C.2       1 <0>         0.0648
     18 C13        -2.1262   -0.7928    1.1173 C.2       1 <0>        -0.1636
     19 C14        -3.4366   -1.2743    0.6736 C.ar      1 <0>        -0.0919
     20 C15        -4.5890   -1.7013    1.3365 C.ar      1 <0>         0.0172
     21 C16        -5.6782   -2.1003    0.6146 C.ar      1 <0>        -0.0383
     22 C17        -5.6485   -2.0850   -0.7733 C.ar      1 <0>        -0.1200
     23 C18        -4.5221   -1.6675   -1.4474 C.ar      1 <0>        -0.0585
     24 C19        -3.4016   -1.2565   -0.7325 C.ar      1 <0>         0.1317
     25 N1         -2.1594   -0.7916   -1.1020 N.pl3     1 <0>        -0.5586
     26 H1         -1.8582   -0.6727   -2.0164 H         1 <0>         0.4308
     27 C20        -6.8606   -2.5302   -1.5503 C.3       1 <0>         0.5177
     28 F4         -6.5989   -2.4293   -2.9209 F         1 <0>        -0.1750
     29 F5         -7.1585   -3.8588   -1.2289 F         1 <0>        -0.1590
     30 F6         -7.9497   -1.7156   -1.2223 F         1 <0>        -0.1590
     31 N2         -6.8995   -2.5528    1.3179 N.pl3     1 <0>         0.0314
     32 O3         -6.9305   -2.5684    2.5264 O.2       1 <0>        -0.1453
     33 O4         -7.8661   -2.9069    0.6838 O.3       1 <0>        -0.1451
     34 O5          0.6709   -0.4649   -1.1737 O.3       1 <0>        -0.5407
     35 H2          1.0039    1.9031    0.0027 H         1 <0>         0.0863
     36 H3         -0.5459    1.8868   -0.8726 H         1 <0>         0.0701
     37 H4         -0.5289    1.8773    0.9072 H         1 <0>         0.0812
     38 H5          0.1838   -0.2350    2.1361 H         1 <0>         0.0912
     39 H6          0.8346   -1.5958    1.1912 H         1 <0>         0.0834
     40 H7          4.0303    1.4804    0.6574 H         1 <0>         0.1518
     41 H8          6.2937    2.4196    0.8635 H         1 <0>         0.1451
     42 H9          7.7291    1.7789    2.7560 H         1 <0>         0.1456
     43 H10         6.9118    0.1956    4.4517 H         1 <0>         0.1509
     44 H11        -1.7972   -0.6755    2.1392 H         1 <0>         0.1666
     45 H12        -4.6191   -1.7165    2.4159 H         1 <0>         0.1685
     46 H13        -4.5089   -1.6593   -2.5273 H         1 <0>         0.1620
     47 H14         0.7216   -1.4279   -1.2455 H         1 <0>         0.3840
@<TRIPOS>BOND
     1    1    2 1
     2    1   35 1
     3    1   36 1
     4    1   37 1
     5    2    3 1
     6    2   17 1
     7    2   34 1
     8    3    4 1
     9    3   38 1
    10    3   39 1
    11    4    5 1
    12    5    6 2
    13    5    7 1
    14    7   12 ar
    15    7    8 ar
    16    8    9 ar
    17    8   40 1
    18    9   10 ar
    19    9   41 1
    20   10   11 ar
    21   10   42 1
    22   11   12 ar
    23   11   43 1
    24   12   13 1
    25   13   14 1
    26   13   15 1
    27   13   16 1
    28   17   25 1
    29   17   18 2
    30   18   19 1
    31   18   44 1
    32   19   24 ar
    33   19   20 ar
    34   20   21 ar
    35   20   45 1
    36   21   22 ar
    37   21   31 1
    38   22   23 ar
    39   22   27 1
    40   23   24 ar
    41   23   46 1
    42   24   25 1
    43   25   26 1
    44   27   28 1
    45   27   29 1
    46   27   30 1
    47   31   32 2
    48   31   33 1
    49   34   47 1
@<TRIPOS>MOLECULE
CHEMBL77779
   49    52     0     0     0
SMALL
USER_CHARGES

@<TRIPOS>ATOM
      1 C1         -0.0167    1.3781    0.0096 C.ar      1 <0>        -0.1232
      2 C2          1.1709    2.0855    0.0021 C.ar      1 <0>        -0.1179
      3 C3          2.3773    1.4107   -0.0130 C.ar      1 <0>        -0.1017
      4 C4          2.3960    0.0285   -0.0201 C.ar      1 <0>        -0.0773
      5 C5          1.2084   -0.6789   -0.0117 C.ar      1 <0>        -0.1220
      6 C6          0.0021   -0.0041    0.0020 C.ar      1 <0>        -0.1211
      7 C7          3.7112   -0.7071   -0.0376 C.3       1 <0>        -0.0804
      8 C8          4.1714   -0.9633    1.3989 C.3       1 <0>        -0.0018
      9 C9          3.1293   -1.8287    2.1042 C.3       1 <0>        -0.1093
     10 C10         2.9553   -3.1326    1.3186 C.3       1 <0>        -0.1459
     11 C11         4.2887   -3.8760    1.2370 C.3       1 <0>         0.2586
     12 C12         5.3395   -2.9937    0.5551 C.3       1 <0>        -0.0998
     13 C13         5.5045   -1.7090    1.3647 C.3       1 <0>        -0.0759
     14 H1          5.8082   -1.9570    2.3818 H         1 <0>         0.0790
     15 C14         6.5500   -0.7911    0.7306 C.3       1 <0>        -0.1168
     16 C15         6.8416    0.3466    1.7085 C.3       1 <0>        -0.0812
     17 C16         5.5679    0.9669    2.2194 C.ar      1 <0>        -0.0552
     18 C17         4.3306    0.3555    2.1005 C.ar      1 <0>        -0.0736
     19 C18         3.1941    0.9722    2.6048 C.ar      1 <0>        -0.0826
     20 C19         3.2823    2.1871    3.2512 C.ar      1 <0>        -0.1490
     21 C20         4.5188    2.7986    3.3974 C.ar      1 <0>         0.1044
     22 C21         5.6609    2.1988    2.8524 C.ar      1 <0>        -0.1504
     23 O1          4.6167    3.9979    4.0291 O.3       1 <0>        -0.5000
     24 C22         4.7428   -4.2153    2.5955 C.1       1 <0>        -0.1575
     25 C23         5.1050   -4.4859    3.6789 C.1       1 <0>        -0.1621
     26 Cl1         5.6110   -4.8640    5.1924 Cl        1 <0>         0.1139
     27 O2          4.1165   -5.0775    0.4828 O.3       1 <0>        -0.5446
     28 H2         -0.9591    1.9053    0.0259 H         1 <0>         0.1187
     29 H3          1.1563    3.1654    0.0076 H         1 <0>         0.1185
     30 H4          3.3051    1.9634   -0.0196 H         1 <0>         0.1168
     31 H5          1.2231   -1.7588   -0.0176 H         1 <0>         0.1216
     32 H6         -0.9258   -0.5567    0.0082 H         1 <0>         0.1196
     33 H7          3.5884   -1.6586   -0.5549 H         1 <0>         0.0853
     34 H8          4.4573   -0.1052   -0.5563 H         1 <0>         0.0791
     35 H9          3.4662   -2.0541    3.1161 H         1 <0>         0.0679
     36 H10         2.1789   -1.2966    2.1438 H         1 <0>         0.0801
     37 H11         2.2204   -3.7620    1.8205 H         1 <0>         0.0727
     38 H12         2.6062   -2.9043    0.3116 H         1 <0>         0.0911
     39 H13         6.2908   -3.5242    0.5139 H         1 <0>         0.0793
     40 H14         5.0113   -2.7493   -0.4551 H         1 <0>         0.0898
     41 H15         7.4637   -1.3530    0.5370 H         1 <0>         0.0737
     42 H16         6.1634   -0.3833   -0.2033 H         1 <0>         0.0744
     43 H17         7.4116   -0.0442    2.5514 H         1 <0>         0.0774
     44 H18         7.4326    1.1099    1.2023 H         1 <0>         0.0779
     45 H19         2.2316    0.4960    2.4902 H         1 <0>         0.1254
     46 H20         2.3932    2.6603    3.6413 H         1 <0>         0.1251
     47 H21         6.6241    2.6763    2.9552 H         1 <0>         0.1258
     48 H22         4.7593    3.9295    4.9831 H         1 <0>         0.3899
     49 H23         3.4702   -5.6897    0.8605 H         1 <0>         0.3831
@<TRIPOS>BOND
     1    1    6 ar
     2    1    2 ar
     3    1   28 1
     4    2    3 ar
     5    2   29 1
     6    3    4 ar
     7    3   30 1
     8    4    5 ar
     9    4    7 1
    10    5    6 ar
    11    5   31 1
    12    6   32 1
    13    7    8 1
    14    7   33 1
    15    7   34 1
    16    8   13 1
    17    8   18 1
    18    8    9 1
    19    9   10 1
    20    9   35 1
    21    9   36 1
    22   10   11 1
    23   10   37 1
    24   10   38 1
    25   11   12 1
    26   11   24 1
    27   11   27 1
    28   12   13 1
    29   12   39 1
    30   12   40 1
    31   13   14 1
    32   13   15 1
    33   15   16 1
    34   15   41 1
    35   15   42 1
    36   16   17 1
    37   16   43 1
    38   16   44 1
    39   17   22 ar
    40   17   18 ar
    41   18   19 ar
    42   19   20 ar
    43   19   45 1
    44   20   21 ar
    45   20   46 1
    46   21   22 ar
    47   21   23 1
    48   22   47 1
    49   23   48 1
    50   24   25 3
    51   25   26 1
    52   27   49 1
@<TRIPOS>MOLECULE
CHEMBL75474
   61    66     0     0     0
SMALL
USER_CHARGES

@<TRIPOS>ATOM
      1 C1         -0.0187    1.5258    0.0104 C.3       1 <0>        -0.1503
      2 C2          0.0021   -0.0041    0.0020 C.3       1 <0>        -0.0137
      3 C3         -1.4457   -0.5000    0.0543 C.3       1 <0>        -0.1033
      4 C4         -2.0863   -0.0575    1.3715 C.3       1 <0>        -0.1164
      5 C5         -1.3471   -0.7003    2.5463 C.3       1 <0>         0.1087
      6 H1         -1.3488   -1.7838    2.4277 H         1 <0>         0.0548
      7 C6          0.0976   -0.1925    2.5793 C.3       1 <0>        -0.1177
      8 C7          0.7326   -0.4685    1.2267 C.2       1 <0>        -0.1036
      9 C8          1.8719   -1.0950    1.1970 C.2       1 <0>        -0.1550
     10 C9          2.5839   -1.4383   -0.0784 C.3       1 <0>        -0.0841
     11 C10         2.1785   -0.4403   -1.1703 C.3       1 <0>        -0.0646
     12 C11         0.6491   -0.4623   -1.2948 C.3       1 <0>        -0.0671
     13 C12         0.2413    0.4915   -2.4252 C.3       1 <0>        -0.1155
     14 C13         0.7957   -0.0495   -3.7386 C.3       1 <0>        -0.1082
     15 C14         2.3259   -0.0705   -3.7170 C.3       1 <0>        -0.0172
     16 C15         2.8680   -0.7856   -2.4619 C.3       1 <0>        -0.0681
     17 C16         2.6402   -2.2463   -2.9031 C.3       1 <0>        -0.0916
     18 C17         2.9401   -2.1854   -4.3927 C.2       1 <0>        -0.1303
     19 C18         2.7551   -1.0031   -4.8489 C.2       1 <0>         0.0679
     20 N1          2.9534   -0.6140   -6.1732 N.pl3     1 <0>        -0.4375
     21 C19         1.9823   -0.3245   -7.0849 C.2       1 <0>         0.2695
     22 N2          2.5216    0.0034   -8.2227 N.2       1 <0>        -0.4917
     23 C20         3.8748   -0.0526   -8.1213 C.ar      1 <0>         0.0451
     24 C21         4.1721   -0.4442   -6.8046 C.ar      1 <0>         0.0545
     25 C22         5.4932   -0.5820   -6.4046 C.ar      1 <0>        -0.1085
     26 C23         6.5109   -0.3313   -7.3007 C.ar      1 <0>        -0.1005
     27 C24         6.2230    0.0588   -8.6007 C.ar      1 <0>        -0.1275
     28 C25         4.9180    0.1938   -9.0173 C.ar      1 <0>        -0.0643
     29 C26         2.9211    1.3314   -3.8625 C.3       1 <0>        -0.1354
     30 O1         -2.0020   -0.3537    3.7682 O.3       1 <0>        -0.5685
     31 H2          1.0039    1.9031    0.0027 H         1 <0>         0.0548
     32 H3         -0.5459    1.8868   -0.8726 H         1 <0>         0.0653
     33 H4         -0.5289    1.8773    0.9072 H         1 <0>         0.0580
     34 H5         -2.0047   -0.0790   -0.7814 H         1 <0>         0.0736
     35 H6         -1.4600   -1.5880   -0.0096 H         1 <0>         0.0647
     36 H7         -2.0281    1.0276    1.4565 H         1 <0>         0.0744
     37 H8         -3.1315   -0.3663    1.3881 H         1 <0>         0.0703
     38 H9          0.1057    0.8794    2.7769 H         1 <0>         0.0800
     39 H10         0.6526   -0.7144    3.3589 H         1 <0>         0.0692
     40 H11         2.3264   -1.3818    2.1338 H         1 <0>         0.1048
     41 H12         3.6610   -1.3857    0.0808 H         1 <0>         0.0710
     42 H13         2.3102   -2.4470   -0.3877 H         1 <0>         0.0767
     43 H14         2.4875    0.5590   -0.8638 H         1 <0>         0.0749
     44 H15         0.3101   -1.4705   -1.5329 H         1 <0>         0.0740
     45 H16        -0.8457    0.5483   -2.4823 H         1 <0>         0.0692
     46 H17         0.6531    1.4826   -2.2345 H         1 <0>         0.0728
     47 H18         0.4254   -1.0629   -3.8935 H         1 <0>         0.0664
     48 H19         0.4575    0.5842   -4.5585 H         1 <0>         0.0641
     49 H20         3.9393   -0.6143   -2.3562 H         1 <0>         0.0805
     50 H21         3.3330   -2.9173   -2.3953 H         1 <0>         0.0810
     51 H22         1.6076   -2.5479   -2.7275 H         1 <0>         0.0903
     52 H23         3.2344   -3.0298   -4.9983 H         1 <0>         0.1285
     53 H24         0.9205   -0.3623   -6.8913 H         1 <0>         0.2109
     54 H25         5.7241   -0.8846   -5.3939 H         1 <0>         0.1197
     55 H26         7.5392   -0.4389   -6.9883 H         1 <0>         0.1303
     56 H27         7.0291    0.2525   -9.2928 H         1 <0>         0.1309
     57 H28         4.7015    0.4988  -10.0304 H         1 <0>         0.1305
     58 H29         2.5880    1.9554   -3.0332 H         1 <0>         0.0650
     59 H30         4.0092    1.2667   -3.8543 H         1 <0>         0.0561
     60 H31         2.5903    1.7707   -4.8036 H         1 <0>         0.0546
     61 H32        -1.5863   -0.7278    4.5571 H         1 <0>         0.3783
@<TRIPOS>BOND
     1    1    2 1
     2    1   31 1
     3    1   32 1
     4    1   33 1
     5    2    8 1
     6    2   12 1
     7    2    3 1
     8    3    4 1
     9    3   34 1
    10    3   35 1
    11    4    5 1
    12    4   36 1
    13    4   37 1
    14    5    6 1
    15    5    7 1
    16    5   30 1
    17    7    8 1
    18    7   38 1
    19    7   39 1
    20    8    9 2
    21    9   10 1
    22    9   40 1
    23   10   11 1
    24   10   41 1
    25   10   42 1
    26   11   16 1
    27   11   12 1
    28   11   43 1
    29   12   13 1
    30   12   44 1
    31   13   14 1
    32   13   45 1
    33   13   46 1
    34   14   15 1
    35   14   47 1
    36   14   48 1
    37   15   19 1
    38   15   16 1
    39   15   29 1
    40   16   17 1
    41   16   49 1
    42   17   18 1
    43   17   50 1
    44   17   51 1
    45   18   19 2
    46   18   52 1
    47   19   20 1
    48   20   24 1
    49   20   21 1
    50   21   22 2
    51   21   53 1
    52   22   23 1
    53   23   28 ar
    54   23   24 ar
    55   24   25 ar
    56   25   26 ar
    57   25   54 1
    58   26   27 ar
    59   26   55 1
    60   27   28 ar
    61   27   56 1
    62   28   57 1
    63   29   58 1
    64   29   59 1
    65   29   60 1
    66   30   61 1
@<TRIPOS>MOLECULE
CHEMBL75474__1
   62    67     0     0     0
SMALL
USER_CHARGES

@<TRIPOS>ATOM
      1 C1         -0.0187    1.5258    0.0104 C.3       1 <0>        -0.1515
      2 C2          0.0021   -0.0041    0.0020 C.3       1 <0>        -0.0143
      3 C3         -1.4457   -0.5000    0.0543 C.3       1 <0>        -0.1027
      4 C4         -2.0863   -0.0575    1.3715 C.3       1 <0>        -0.1181
      5 C5         -1.3471   -0.7003    2.5463 C.3       1 <0>         0.1089
      6 H1         -1.3488   -1.7838    2.4277 H         1 <0>         0.0549
      7 C6          0.0976   -0.1925    2.5793 C.3       1 <0>        -0.1203
      8 C7          0.7326   -0.4685    1.2267 C.2       1 <0>        -0.1000
      9 C8          1.8719   -1.0950    1.1970 C.2       1 <0>        -0.1591
     10 C9          2.5839   -1.4383   -0.0784 C.3       1 <0>        -0.0829
     11 C10         2.1785   -0.4403   -1.1703 C.3       1 <0>        -0.0686
     12 C11         0.6491   -0.4623   -1.2948 C.3       1 <0>        -0.0674
     13 C12         0.2413    0.4915   -2.4252 C.3       1 <0>        -0.1182
     14 C13         0.7957   -0.0495   -3.7386 C.3       1 <0>        -0.1120
     15 C14         2.3259   -0.0705   -3.7170 C.3       1 <0>        -0.0098
     16 C15         2.8680   -0.7856   -2.4619 C.3       1 <0>        -0.0654
     17 C16         2.6402   -2.2463   -2.9031 C.3       1 <0>        -0.1028
     18 C17         2.9401   -2.1854   -4.3927 C.2       1 <0>        -0.0680
     19 C18         2.7551   -1.0031   -4.8489 C.2       1 <0>         0.0073
     20 N1          2.9534   -0.6140   -6.1732 N.pl3     1 <0>        -0.3632
     21 C19         1.9823   -0.3245   -7.0849 C.cat     1 <0>         0.3742
     22 N2          2.5216    0.0034   -8.2227 N.pl3     1 <0>        -0.4882
     23 C20         3.8748   -0.0526   -8.1213 C.ar      1 <0>         0.0437
     24 C21         4.1721   -0.4442   -6.8046 C.ar      1 <0>         0.0795
     25 C22         5.4932   -0.5820   -6.4046 C.ar      1 <0>        -0.0846
     26 C23         6.5109   -0.3313   -7.3007 C.ar      1 <0>        -0.0657
     27 C24         6.2230    0.0588   -8.6007 C.ar      1 <0>        -0.0773
     28 C25         4.9180    0.1938   -9.0173 C.ar      1 <0>        -0.0765
     29 C26         2.9211    1.3314   -3.8625 C.3       1 <0>        -0.1421
     30 O1         -2.0020   -0.3537    3.7682 O.3       1 <0>        -0.5672
     31 H2          1.0039    1.9031    0.0027 H         1 <0>         0.0547
     32 H3         -0.5459    1.8868   -0.8726 H         1 <0>         0.0641
     33 H4         -0.5289    1.8773    0.9072 H         1 <0>         0.0617
     34 H5         -2.0047   -0.0790   -0.7814 H         1 <0>         0.0726
     35 H6         -1.4600   -1.5880   -0.0096 H         1 <0>         0.0652
     36 H7         -2.0281    1.0276    1.4565 H         1 <0>         0.0750
     37 H8         -3.1315   -0.3663    1.3881 H         1 <0>         0.0724
     38 H9          0.1057    0.8794    2.7769 H         1 <0>         0.0816
     39 H10         0.6526   -0.7144    3.3589 H         1 <0>         0.0715
     40 H11         2.3264   -1.3818    2.1338 H         1 <0>         0.1079
     41 H12         3.6610   -1.3857    0.0808 H         1 <0>         0.0730
     42 H13         2.3102   -2.4470   -0.3877 H         1 <0>         0.0766
     43 H14         2.4875    0.5590   -0.8638 H         1 <0>         0.0797
     44 H15         0.3101   -1.4705   -1.5329 H         1 <0>         0.0753
     45 H16        -0.8457    0.5483   -2.4823 H         1 <0>         0.0748
     46 H17         0.6531    1.4826   -2.2345 H         1 <0>         0.0761
     47 H18         0.4254   -1.0629   -3.8935 H         1 <0>         0.0705
     48 H19         0.4575    0.5842   -4.5585 H         1 <0>         0.0619
     49 H20         3.9393   -0.6143   -2.3562 H         1 <0>         0.0873
     50 H21         3.3330   -2.9173   -2.3953 H         1 <0>         0.0963
     51 H22         1.6076   -2.5479   -2.7275 H         1 <0>         0.1051
     52 H23         3.2344   -3.0298   -4.9983 H         1 <0>         0.1395
     53 H24         0.9205   -0.3623   -6.8913 H         1 <0>         0.2630
     54 H25         5.7241   -0.8846   -5.3939 H         1 <0>         0.1491
     55 H26         7.5392   -0.4389   -6.9883 H         1 <0>         0.1571
     56 H27         7.0291    0.2525   -9.2928 H         1 <0>         0.1577
     57 H28         4.7015    0.4988  -10.0304 H         1 <0>         0.1541
     58 H29         2.5880    1.9554   -3.0332 H         1 <0>         0.0773
     59 H30         4.0092    1.2667   -3.8543 H         1 <0>         0.0615
     60 H31         2.5903    1.7707   -4.8036 H         1 <0>         0.0499
     61 H32        -1.5863   -0.7278    4.5571 H         1 <0>         0.3806
     62 H33         2.0313    0.2502   -9.0225 H         1 <0>         0.4642
@<TRIPOS>BOND
     1    1    2 1
     2    1   31 1
     3    1   32 1
     4    1   33 1
     5    2    8 1
     6    2   12 1
     7    2    3 1
     8    3    4 1
     9    3   34 1
    10    3   35 1
    11    4    5 1
    12    4   36 1
    13    4   37 1
    14    5    6 1
    15    5    7 1
    16    5   30 1
    17    7    8 1
    18    7   38 1
    19    7   39 1
    20    8    9 2
    21    9   10 1
    22    9   40 1
    23   10   11 1
    24   10   41 1
    25   10   42 1
    26   11   16 1
    27   11   12 1
    28   11   43 1
    29   12   13 1
    30   12   44 1
    31   13   14 1
    32   13   45 1
    33   13   46 1
    34   14   15 1
    35   14   47 1
    36   14   48 1
    37   15   19 1
    38   15   16 1
    39   15   29 1
    40   16   17 1
    41   16   49 1
    42   17   18 1
    43   17   50 1
    44   17   51 1
    45   18   19 2
    46   18   52 1
    47   19   20 1
    48   20   24 1
    49   20   21 1
    50   21   22 2
    51   21   53 1
    52   22   23 1
    53   22   62 1
    54   23   28 ar
    55   23   24 ar
    56   24   25 ar
    57   25   26 ar
    58   25   54 1
    59   26   27 ar
    60   26   55 1
    61   27   28 ar
    62   27   56 1
    63   28   57 1
    64   29   58 1
    65   29   59 1
    66   29   60 1
    67   30   61 1
@<TRIPOS>MOLECULE
CHEMBL75474__2
   61    66     0     0     0
SMALL
USER_CHARGES

@<TRIPOS>ATOM
      1 C1          0.5463    1.2627    0.3415 C.3       1 <0>        -0.1490
      2 C2          0.6644   -0.2609    0.2653 C.3       1 <0>        -0.0137
      3 C3         -0.6891   -0.8633    0.6527 C.3       1 <0>        -0.1046
      4 C4         -1.0082   -0.5032    2.1051 C.3       1 <0>        -0.1157
      5 C5          0.0407   -1.1222    3.0307 C.3       1 <0>         0.1086
      6 H1          0.0795   -2.1991    2.8671 H         1 <0>         0.0548
      7 C6          1.4119   -0.5104    2.7292 C.3       1 <0>        -0.1176
      8 C7          1.7069   -0.6989    1.2506 C.2       1 <0>        -0.1039
      9 C8          2.8453   -1.2297    0.9130 C.2       1 <0>        -0.1544
     10 C9          3.2443   -1.4727   -0.5132 C.3       1 <0>        -0.0840
     11 C10         2.5119   -0.4765   -1.4192 C.3       1 <0>        -0.0701
     12 C11         0.9954   -0.6396   -1.1687 C.3       1 <0>        -0.0667
     13 C12         0.1561    0.1963   -2.1300 C.3       1 <0>        -0.1213
     14 C13         0.5238   -0.0698   -3.5999 C.3       1 <0>        -0.1014
     15 C14         2.0030    0.2070   -3.7358 C.3       1 <0>        -0.0329
     16 C15         2.7655   -0.8318   -2.8725 C.3       1 <0>        -0.0785
     17 C16         4.1865   -0.5885   -3.4008 C.3       1 <0>        -0.0847
     18 C17         3.9259   -0.3337   -4.8856 C.2       1 <0>        -0.1266
     19 C18         2.6492    0.0735   -5.0736 C.2       1 <0>         0.0654
     20 N1          2.0521    0.3731   -6.2977 N.pl3     1 <0>        -0.4331
     21 C19         1.1093   -0.3719   -6.9412 C.2       1 <0>         0.2725
     22 N2          0.7727    0.2027   -8.0590 N.2       1 <0>        -0.4920
     23 C20         1.4749    1.3553   -8.2111 C.ar      1 <0>         0.0452
     24 C21         2.3017    1.4845   -7.0820 C.ar      1 <0>         0.0522
     25 C22         3.1394    2.5834   -6.9592 C.ar      1 <0>        -0.1082
     26 C23         3.1556    3.5473   -7.9452 C.ar      1 <0>        -0.1009
     27 C24         2.3389    3.4262   -9.0602 C.ar      1 <0>        -0.1274
     28 C25         1.5065    2.3391   -9.2025 C.ar      1 <0>        -0.0645
     29 C26         2.3119    1.5915   -3.1626 C.3       1 <0>        -0.1533
     30 O1         -0.3096   -0.8592    4.3909 O.3       1 <0>        -0.5685
     31 H2          1.4637    1.7174   -0.0323 H         1 <0>         0.0554
     32 H3         -0.2964    1.5926   -0.2661 H         1 <0>         0.0630
     33 H4          0.3873    1.5635    1.3770 H         1 <0>         0.0583
     34 H5         -1.4652   -0.4635    0.0001 H         1 <0>         0.0738
     35 H6         -0.6481   -1.9474    0.5475 H         1 <0>         0.0648
     36 H7         -0.9996    0.5806    2.2205 H         1 <0>         0.0737
     37 H8         -1.9943   -0.8875    2.3660 H         1 <0>         0.0703
     38 H9          1.4000    0.5530    2.9684 H         1 <0>         0.0801
     39 H10         2.1762   -1.0120    3.3228 H         1 <0>         0.0695
     40 H11         3.5357   -1.5082    1.6954 H         1 <0>         0.1044
     41 H12         4.3207   -1.3370   -0.6183 H         1 <0>         0.0723
     42 H13         2.9754   -2.4898   -0.7983 H         1 <0>         0.0746
     43 H14         2.8426    0.5413   -1.2123 H         1 <0>         0.0892
     44 H15         0.7262   -1.6855   -1.3159 H         1 <0>         0.0689
     45 H16        -0.8969   -0.0418   -1.9796 H         1 <0>         0.0655
     46 H17         0.3134    1.2524   -1.9111 H         1 <0>         0.0762
     47 H18         0.3141   -1.1087   -3.8544 H         1 <0>         0.0666
     48 H19        -0.0414    0.5962   -4.2520 H         1 <0>         0.0645
     49 H20         2.4090   -1.8360   -3.1018 H         1 <0>         0.0862
     50 H21         4.6346    0.2852   -2.9276 H         1 <0>         0.0904
     51 H22         4.8116   -1.4703   -3.2600 H         1 <0>         0.0829
     52 H23         4.6402   -0.5006   -5.6783 H         1 <0>         0.1329
     53 H24         0.7017   -1.3033   -6.5769 H         1 <0>         0.2115
     54 H25         3.7771    2.6840   -6.0933 H         1 <0>         0.1195
     55 H26         3.8081    4.4024   -7.8486 H         1 <0>         0.1303
     56 H27         2.3606    4.1881   -9.8254 H         1 <0>         0.1309
     57 H28         0.8729    2.2521  -10.0728 H         1 <0>         0.1306
     58 H29         1.9426    1.6516   -2.1388 H         1 <0>         0.0798
     59 H30         3.3894    1.7558   -3.1703 H         1 <0>         0.0579
     60 H31         1.8238    2.3535   -3.7702 H         1 <0>         0.0521
     61 H32         0.3130   -1.2234    5.0349 H         1 <0>         0.3782
@<TRIPOS>BOND
     1    1    2 1
     2    1   31 1
     3    1   32 1
     4    1   33 1
     5    2    8 1
     6    2   12 1
     7    2    3 1
     8    3    4 1
     9    3   34 1
    10    3   35 1
    11    4    5 1
    12    4   36 1
    13    4   37 1
    14    5    6 1
    15    5    7 1
    16    5   30 1
    17    7    8 1
    18    7   38 1
    19    7   39 1
    20    8    9 2
    21    9   10 1
    22    9   40 1
    23   10   11 1
    24   10   41 1
    25   10   42 1
    26   11   16 1
    27   11   12 1
    28   11   43 1
    29   12   13 1
    30   12   44 1
    31   13   14 1
    32   13   45 1
    33   13   46 1
    34   14   15 1
    35   14   47 1
    36   14   48 1
    37   15   19 1
    38   15   16 1
    39   15   29 1
    40   16   17 1
    41   16   49 1
    42   17   18 1
    43   17   50 1
    44   17   51 1
    45   18   19 2
    46   18   52 1
    47   19   20 1
    48   20   24 1
    49   20   21 1
    50   21   22 2
    51   21   53 1
    52   22   23 1
    53   23   28 ar
    54   23   24 ar
    55   24   25 ar
    56   25   26 ar
    57   25   54 1
    58   26   27 ar
    59   26   55 1
    60   27   28 ar
    61   27   56 1
    62   28   57 1
    63   29   58 1
    64   29   59 1
    65   29   60 1
    66   30   61 1
@<TRIPOS>MOLECULE
CHEMBL75474__3
   62    67     0     0     0
SMALL
USER_CHARGES

@<TRIPOS>ATOM
      1 C1          0.5463    1.2627    0.3415 C.3       1 <0>        -0.1501
      2 C2          0.6644   -0.2609    0.2653 C.3       1 <0>        -0.0141
      3 C3         -0.6891   -0.8633    0.6527 C.3       1 <0>        -0.1040
      4 C4         -1.0082   -0.5032    2.1051 C.3       1 <0>        -0.1173
      5 C5          0.0407   -1.1222    3.0307 C.3       1 <0>         0.1087
      6 H1          0.0795   -2.1991    2.8671 H         1 <0>         0.0550
      7 C6          1.4119   -0.5104    2.7292 C.3       1 <0>        -0.1200
      8 C7          1.7069   -0.6989    1.2506 C.2       1 <0>        -0.1009
      9 C8          2.8453   -1.2297    0.9130 C.2       1 <0>        -0.1580
     10 C9          3.2443   -1.4727   -0.5132 C.3       1 <0>        -0.0833
     11 C10         2.5119   -0.4765   -1.4192 C.3       1 <0>        -0.0728
     12 C11         0.9954   -0.6396   -1.1687 C.3       1 <0>        -0.0676
     13 C12         0.1561    0.1963   -2.1300 C.3       1 <0>        -0.1236
     14 C13         0.5238   -0.0698   -3.5999 C.3       1 <0>        -0.1050
     15 C14         2.0030    0.2070   -3.7358 C.3       1 <0>        -0.0308
     16 C15         2.7655   -0.8318   -2.8725 C.3       1 <0>        -0.0748
     17 C16         4.1865   -0.5885   -3.4008 C.3       1 <0>        -0.0971
     18 C17         3.9259   -0.3337   -4.8856 C.2       1 <0>        -0.0542
     19 C18         2.6492    0.0735   -5.0736 C.2       1 <0>        -0.0005
     20 N1          2.0521    0.3731   -6.2977 N.pl3     1 <0>        -0.3576
     21 C19         1.1093   -0.3719   -6.9412 C.cat     1 <0>         0.3767
     22 N2          0.7727    0.2027   -8.0590 N.pl3     1 <0>        -0.4888
     23 C20         1.4749    1.3553   -8.2111 C.ar      1 <0>         0.0436
     24 C21         2.3017    1.4845   -7.0820 C.ar      1 <0>         0.0774
     25 C22         3.1394    2.5834   -6.9592 C.ar      1 <0>        -0.0846
     26 C23         3.1556    3.5473   -7.9452 C.ar      1 <0>        -0.0661
     27 C24         2.3389    3.4262   -9.0602 C.ar      1 <0>        -0.0776
     28 C25         1.5065    2.3391   -9.2025 C.ar      1 <0>        -0.0766
     29 C26         2.3119    1.5915   -3.1626 C.3       1 <0>        -0.1598
     30 O1         -0.3096   -0.8592    4.3909 O.3       1 <0>        -0.5672
     31 H2          1.4637    1.7174   -0.0323 H         1 <0>         0.0546
     32 H3         -0.2964    1.5926   -0.2661 H         1 <0>         0.0621
     33 H4          0.3873    1.5635    1.3770 H         1 <0>         0.0623
     34 H5         -1.4652   -0.4635    0.0001 H         1 <0>         0.0726
     35 H6         -0.6481   -1.9474    0.5475 H         1 <0>         0.0655
     36 H7         -0.9996    0.5806    2.2205 H         1 <0>         0.0742
     37 H8         -1.9943   -0.8875    2.3660 H         1 <0>         0.0724
     38 H9          1.4000    0.5530    2.9684 H         1 <0>         0.0815
     39 H10         2.1762   -1.0120    3.3228 H         1 <0>         0.0718
     40 H11         3.5357   -1.5082    1.6954 H         1 <0>         0.1076
     41 H12         4.3207   -1.3370   -0.6183 H         1 <0>         0.0739
     42 H13         2.9754   -2.4898   -0.7983 H         1 <0>         0.0757
     43 H14         2.8426    0.5413   -1.2123 H         1 <0>         0.0922
     44 H15         0.7262   -1.6855   -1.3159 H         1 <0>         0.0715
     45 H16        -0.8969   -0.0418   -1.9796 H         1 <0>         0.0710
     46 H17         0.3134    1.2524   -1.9111 H         1 <0>         0.0798
     47 H18         0.3141   -1.1087   -3.8544 H         1 <0>         0.0701
     48 H19        -0.0414    0.5962   -4.2520 H         1 <0>         0.0607
     49 H20         2.4090   -1.8360   -3.1018 H         1 <0>         0.0922
     50 H21         4.6346    0.2852   -2.9276 H         1 <0>         0.1061
     51 H22         4.8116   -1.4703   -3.2600 H         1 <0>         0.0984
     52 H23         4.6402   -0.5006   -5.6783 H         1 <0>         0.1449
     53 H24         0.7017   -1.3033   -6.5769 H         1 <0>         0.2637
     54 H25         3.7771    2.6840   -6.0933 H         1 <0>         0.1486
     55 H26         3.8081    4.4024   -7.8486 H         1 <0>         0.1568
     56 H27         2.3606    4.1881   -9.8254 H         1 <0>         0.1576
     57 H28         0.8729    2.2521  -10.0728 H         1 <0>         0.1540
     58 H29         1.9426    1.6516   -2.1388 H         1 <0>         0.0890
     59 H30         3.3894    1.7558   -3.1703 H         1 <0>         0.0625
     60 H31         1.8238    2.3535   -3.7702 H         1 <0>         0.0530
     61 H32         0.3130   -1.2234    5.0349 H         1 <0>         0.3806
     62 H33         0.1194   -0.1404   -8.6886 H         1 <0>         0.4643
@<TRIPOS>BOND
     1    1    2 1
     2    1   31 1
     3    1   32 1
     4    1   33 1
     5    2    8 1
     6    2   12 1
     7    2    3 1
     8    3    4 1
     9    3   34 1
    10    3   35 1
    11    4    5 1
    12    4   36 1
    13    4   37 1
    14    5    6 1
    15    5    7 1
    16    5   30 1
    17    7    8 1
    18    7   38 1
    19    7   39 1
    20    8    9 2
    21    9   10 1
    22    9   40 1
    23   10   11 1
    24   10   41 1
    25   10   42 1
    26   11   16 1
    27   11   12 1
    28   11   43 1
    29   12   13 1
    30   12   44 1
    31   13   14 1
    32   13   45 1
    33   13   46 1
    34   14   15 1
    35   14   47 1
    36   14   48 1
    37   15   19 1
    38   15   16 1
    39   15   29 1
    40   16   17 1
    41   16   49 1
    42   17   18 1
    43   17   50 1
    44   17   51 1
    45   18   19 2
    46   18   52 1
    47   19   20 1
    48   20   24 1
    49   20   21 1
    50   21   22 2
    51   21   53 1
    52   22   23 1
    53   22   62 1
    54   23   28 ar
    55   23   24 ar
    56   24   25 ar
    57   25   26 ar
    58   25   54 1
    59   26   27 ar
    60   26   55 1
    61   27   28 ar
    62   27   56 1
    63   28   57 1
    64   29   58 1
    65   29   59 1
    66   29   60 1
    67   30   61 1
@<TRIPOS>MOLECULE
CHEMBL75474__4
   61    66     0     0     0
SMALL
USER_CHARGES

@<TRIPOS>ATOM
      1 C1          0.4033    1.4833    0.5791 C.3       1 <0>        -0.1449
      2 C2          0.3798   -0.0444    0.4993 C.3       1 <0>        -0.0133
      3 C3         -1.0630   -0.5139    0.7078 C.3       1 <0>        -0.1076
      4 C4         -1.5251   -0.1261    2.1136 C.3       1 <0>        -0.1166
      5 C5         -0.6648   -0.8430    3.1555 C.3       1 <0>         0.1089
      6 H1         -0.7108   -1.9188    2.9867 H         1 <0>         0.0549
      7 C6          0.7862   -0.3685    3.0330 C.3       1 <0>        -0.1181
      8 C7          1.2431   -0.5877    1.6006 C.2       1 <0>        -0.1005
      9 C8          2.3538   -1.2344    1.4004 C.2       1 <0>        -0.1611
     10 C9          2.9020   -1.5213    0.0319 C.3       1 <0>        -0.1021
     11 C10         2.3869   -0.4581   -0.9439 C.3       1 <0>        -0.0727
     12 C11         0.8539   -0.4579   -0.8835 C.3       1 <0>        -0.0666
     13 C12         0.3434   -1.8663   -1.2102 C.3       1 <0>        -0.1193
     14 C13         0.7290   -2.1899   -2.6534 C.3       1 <0>        -0.1056
     15 C14         2.2220   -2.1255   -2.8573 C.3       1 <0>        -0.0197
     16 C15         2.8746   -0.7875   -2.3561 C.3       1 <0>        -0.0707
     17 C16         4.3469   -1.2878   -2.2030 C.3       1 <0>        -0.0942
     18 C17         4.1735   -2.7301   -1.7623 C.2       1 <0>        -0.1185
     19 C18         2.9761   -3.2023   -2.1224 C.2       1 <0>         0.0596
     20 N1          2.4964   -4.4855   -1.8621 N.pl3     1 <0>        -0.4312
     21 C19         2.0027   -4.9389   -0.6752 C.2       1 <0>         0.2667
     22 N2          1.6442   -6.1846   -0.7873 N.2       1 <0>        -0.4890
     23 C20         1.8823   -6.6176   -2.0523 C.ar      1 <0>         0.0445
     24 C21         2.4274   -5.5337   -2.7618 C.ar      1 <0>         0.0569
     25 C22         2.7695   -5.6822   -4.0979 C.ar      1 <0>        -0.1106
     26 C23         2.5706   -6.8934   -4.7264 C.ar      1 <0>        -0.1008
     27 C24         2.0298   -7.9656   -4.0316 C.ar      1 <0>        -0.1275
     28 C25         1.6910   -7.8388   -2.7034 C.ar      1 <0>        -0.0642
     29 C26         2.5168   -2.2612   -4.3525 C.3       1 <0>        -0.1497
     30 O1         -1.1546   -0.5448    4.4645 O.3       1 <0>        -0.5686
     31 H2          1.4273    1.8376    0.4604 H         1 <0>         0.0553
     32 H3         -0.2189    1.8982   -0.2139 H         1 <0>         0.0576
     33 H4          0.0184    1.8026    1.5476 H         1 <0>         0.0603
     34 H5         -1.7097   -0.0406   -0.0310 H         1 <0>         0.0725
     35 H6         -1.1129   -1.5968    0.5944 H         1 <0>         0.0712
     36 H7         -1.4281    0.9519    2.2428 H         1 <0>         0.0733
     37 H8         -2.5683   -0.4138    2.2447 H         1 <0>         0.0701
     38 H9          0.8478    0.6914    3.2798 H         1 <0>         0.0796
     39 H10         1.4182   -0.9412    3.7116 H         1 <0>         0.0689
     40 H11         2.9087   -1.5814    2.2596 H         1 <0>         0.1031
     41 H12         3.9912   -1.4921    0.0616 H         1 <0>         0.0774
     42 H13         2.5707   -2.5071   -0.2945 H         1 <0>         0.0866
     43 H14         2.7667    0.5199   -0.6482 H         1 <0>         0.0775
     44 H15         0.4631    0.2409   -1.6231 H         1 <0>         0.0759
     45 H16         0.8020   -2.5895   -0.5359 H         1 <0>         0.0647
     46 H17        -0.7409   -1.8986   -1.1031 H         1 <0>         0.0718
     47 H18         0.3793   -3.1927   -2.8988 H         1 <0>         0.0595
     48 H19         0.2477   -1.4737   -3.3194 H         1 <0>         0.0686
     49 H20         2.7556    0.0441   -3.0507 H         1 <0>         0.1018
     50 H21         4.8725   -1.2367   -3.1566 H         1 <0>         0.0869
     51 H22         4.8722   -0.7123   -1.4408 H         1 <0>         0.0847
     52 H23         4.9121   -3.3042   -1.2227 H         1 <0>         0.1322
     53 H24         1.9215   -4.3502    0.2267 H         1 <0>         0.2080
     54 H25         3.1902   -4.8512   -4.6446 H         1 <0>         0.1227
     55 H26         2.8373   -7.0080   -5.7666 H         1 <0>         0.1300
     56 H27         1.8787   -8.9090   -4.5352 H         1 <0>         0.1305
     57 H28         1.2696   -8.6775   -2.1693 H         1 <0>         0.1301
     58 H29         2.0434   -1.4410   -4.8921 H         1 <0>         0.0638
     59 H30         3.5942   -2.2290   -4.5148 H         1 <0>         0.0597
     60 H31         2.1229   -3.2104   -4.7158 H         1 <0>         0.0589
     61 H32        -0.6554   -0.9671    5.1769 H         1 <0>         0.3782
@<TRIPOS>BOND
     1    1    2 1
     2    1   31 1
     3    1   32 1
     4    1   33 1
     5    2    8 1
     6    2   12 1
     7    2    3 1
     8    3    4 1
     9    3   34 1
    10    3   35 1
    11    4    5 1
    12    4   36 1
    13    4   37 1
    14    5    6 1
    15    5    7 1
    16    5   30 1
    17    7    8 1
    18    7   38 1
    19    7   39 1
    20    8    9 2
    21    9   10 1
    22    9   40 1
    23   10   11 1
    24   10   41 1
    25   10   42 1
    26   11   16 1
    27   11   12 1
    28   11   43 1
    29   12   13 1
    30   12   44 1
    31   13   14 1
    32   13   45 1
    33   13   46 1
    34   14   15 1
    35   14   47 1
    36   14   48 1
    37   15   19 1
    38   15   16 1
    39   15   29 1
    40   16   17 1
    41   16   49 1
    42   17   18 1
    43   17   50 1
    44   17   51 1
    45   18   19 2
    46   18   52 1
    47   19   20 1
    48   20   24 1
    49   20   21 1
    50   21   22 2
    51   21   53 1
    52   22   23 1
    53   23   28 ar
    54   23   24 ar
    55   24   25 ar
    56   25   26 ar
    57   25   54 1
    58   26   27 ar
    59   26   55 1
    60   27   28 ar
    61   27   56 1
    62   28   57 1
    63   29   58 1
    64   29   59 1
    65   29   60 1
    66   30   61 1
@<TRIPOS>MOLECULE
CHEMBL75474__5
   62    67     0     0     0
SMALL
USER_CHARGES

@<TRIPOS>ATOM
      1 C1          0.4033    1.4833    0.5791 C.3       1 <0>        -0.1486
      2 C2          0.3798   -0.0444    0.4993 C.3       1 <0>        -0.0178
      3 C3         -1.0630   -0.5139    0.7078 C.3       1 <0>        -0.1052
      4 C4         -1.5251   -0.1261    2.1136 C.3       1 <0>        -0.1214
      5 C5         -0.6648   -0.8430    3.1555 C.3       1 <0>         0.1119
      6 H1         -0.7108   -1.9188    2.9867 H         1 <0>         0.0505
      7 C6          0.7862   -0.3685    3.0330 C.3       1 <0>        -0.1242
      8 C7          1.2431   -0.5877    1.6006 C.2       1 <0>        -0.0830
      9 C8          2.3538   -1.2344    1.4004 C.2       1 <0>        -0.1795
     10 C9          2.9020   -1.5213    0.0319 C.3       1 <0>        -0.0952
     11 C10         2.3869   -0.4581   -0.9439 C.3       1 <0>        -0.0786
     12 C11         0.8539   -0.4579   -0.8835 C.3       1 <0>        -0.0673
     13 C12         0.3434   -1.8663   -1.2102 C.3       1 <0>        -0.1189
     14 C13         0.7290   -2.1899   -2.6534 C.3       1 <0>        -0.1123
     15 C14         2.2220   -2.1255   -2.8573 C.3       1 <0>        -0.0106
     16 C15         2.8746   -0.7875   -2.3561 C.3       1 <0>        -0.0666
     17 C16         4.3469   -1.2878   -2.2030 C.3       1 <0>        -0.1058
     18 C17         4.1735   -2.7301   -1.7623 C.2       1 <0>        -0.0500
     19 C18         2.9761   -3.2023   -2.1224 C.2       1 <0>        -0.0073
     20 N1          2.4964   -4.4855   -1.8621 N.pl3     1 <0>        -0.3539
     21 C19         2.0027   -4.9389   -0.6752 C.cat     1 <0>         0.3653
     22 N2          1.6442   -6.1846   -0.7873 N.pl3     1 <0>        -0.4860
     23 C20         1.8823   -6.6176   -2.0523 C.ar      1 <0>         0.0436
     24 C21         2.4274   -5.5337   -2.7618 C.ar      1 <0>         0.0828
     25 C22         2.7695   -5.6822   -4.0979 C.ar      1 <0>        -0.0865
     26 C23         2.5706   -6.8934   -4.7264 C.ar      1 <0>        -0.0660
     27 C24         2.0298   -7.9656   -4.0316 C.ar      1 <0>        -0.0770
     28 C25         1.6910   -7.8388   -2.7034 C.ar      1 <0>        -0.0765
     29 C26         2.5168   -2.2612   -4.3525 C.3       1 <0>        -0.1552
     30 O1         -1.1546   -0.5448    4.4645 O.3       1 <0>        -0.5651
     31 H2          1.4273    1.8376    0.4604 H         1 <0>         0.0575
     32 H3         -0.2189    1.8982   -0.2139 H         1 <0>         0.0616
     33 H4          0.0184    1.8026    1.5476 H         1 <0>         0.0639
     34 H5         -1.7097   -0.0406   -0.0310 H         1 <0>         0.0757
     35 H6         -1.1129   -1.5968    0.5944 H         1 <0>         0.0665
     36 H7         -1.4281    0.9519    2.2428 H         1 <0>         0.0772
     37 H8         -2.5683   -0.4138    2.2447 H         1 <0>         0.0733
     38 H9          0.8478    0.6914    3.2798 H         1 <0>         0.0853
     39 H10         1.4182   -0.9412    3.7116 H         1 <0>         0.0711
     40 H11         2.9087   -1.5814    2.2596 H         1 <0>         0.1064
     41 H12         3.9912   -1.4921    0.0616 H         1 <0>         0.0804
     42 H13         2.5707   -2.5071   -0.2945 H         1 <0>         0.0662
     43 H14         2.7667    0.5199   -0.6482 H         1 <0>         0.0871
     44 H15         0.4631    0.2409   -1.6231 H         1 <0>         0.0830
     45 H16         0.8020   -2.5895   -0.5359 H         1 <0>         0.0524
     46 H17        -0.7409   -1.8986   -1.1031 H         1 <0>         0.0789
     47 H18         0.3793   -3.1927   -2.8988 H         1 <0>         0.0557
     48 H19         0.2477   -1.4737   -3.3194 H         1 <0>         0.0819
     49 H20         2.7556    0.0441   -3.0507 H         1 <0>         0.1134
     50 H21         4.8725   -1.2367   -3.1566 H         1 <0>         0.1030
     51 H22         4.8722   -0.7123   -1.4408 H         1 <0>         0.0996
     52 H23         4.9121   -3.3042   -1.2227 H         1 <0>         0.1435
     53 H24         1.9215   -4.3502    0.2267 H         1 <0>         0.2591
     54 H25         3.1902   -4.8512   -4.6446 H         1 <0>         0.1515
     55 H26         2.8373   -7.0080   -5.7666 H         1 <0>         0.1571
     56 H27         1.8787   -8.9090   -4.5352 H         1 <0>         0.1577
     57 H28         1.2696   -8.6775   -2.1693 H         1 <0>         0.1540
     58 H29         2.0434   -1.4410   -4.8921 H         1 <0>         0.0748
     59 H30         3.5942   -2.2290   -4.5148 H         1 <0>         0.0653
     60 H31         2.1229   -3.2104   -4.7158 H         1 <0>         0.0571
     61 H32        -0.6554   -0.9671    5.1769 H         1 <0>         0.3801
     62 H33         1.2646   -6.7226   -0.0750 H         1 <0>         0.4639
@<TRIPOS>BOND
     1    1    2 1
     2    1   31 1
     3    1   32 1
     4    1   33 1
     5    2    8 1
     6    2   12 1
     7    2    3 1
     8    3    4 1
     9    3   34 1
    10    3   35 1
    11    4    5 1
    12    4   36 1
    13    4   37 1
    14    5    6 1
    15    5    7 1
    16    5   30 1
    17    7    8 1
    18    7   38 1
    19    7   39 1
    20    8    9 2
    21    9   10 1
    22    9   40 1
    23   10   11 1
    24   10   41 1
    25   10   42 1
    26   11   16 1
    27   11   12 1
    28   11   43 1
    29   12   13 1
    30   12   44 1
    31   13   14 1
    32   13   45 1
    33   13   46 1
    34   14   15 1
    35   14   47 1
    36   14   48 1
    37   15   19 1
    38   15   16 1
    39   15   29 1
    40   16   17 1
    41   16   49 1
    42   17   18 1
    43   17   50 1
    44   17   51 1
    45   18   19 2
    46   18   52 1
    47   19   20 1
    48   20   24 1
    49   20   21 1
    50   21   22 2
    51   21   53 1
    52   22   23 1
    53   22   62 1
    54   23   28 ar
    55   23   24 ar
    56   24   25 ar
    57   25   26 ar
    58   25   54 1
    59   26   27 ar
    60   26   55 1
    61   27   28 ar
    62   27   56 1
    63   28   57 1
    64   29   58 1
    65   29   59 1
    66   29   60 1
    67   30   61 1
@<TRIPOS>MOLECULE
CHEMBL75474__6
   61    66     0     0     0
SMALL
USER_CHARGES

@<TRIPOS>ATOM
      1 C1         -0.9821    1.3339   -0.4573 C.3       1 <0>        -0.1480
      2 C2         -0.8778   -0.2004   -0.4892 C.3       1 <0>        -0.0103
      3 C3         -2.2768   -0.7455   -0.7834 C.3       1 <0>        -0.1017
      4 C4         -3.2356   -0.4220    0.3601 C.3       1 <0>        -0.1153
      5 C5         -2.7355   -1.0357    1.6670 C.3       1 <0>         0.1096
      6 H1         -2.6256   -2.1146    1.5471 H         1 <0>         0.0551
      7 C6         -1.3799   -0.4240    2.0372 C.3       1 <0>        -0.1172
      8 C7         -0.4341   -0.6457    0.8676 C.2       1 <0>        -0.1024
      9 C8          0.7015   -1.2327    1.0924 C.2       1 <0>        -0.1528
     10 C9          1.6687   -1.5829    0.0082 C.3       1 <0>        -0.0846
     11 C10         1.5361   -0.6385   -1.1988 C.3       1 <0>        -0.0547
     12 C11         0.0776   -0.5248   -1.6149 C.3       1 <0>        -0.0765
     13 C12        -0.3741   -1.6820   -2.4847 C.3       1 <0>        -0.1081
     14 C13         0.3833   -1.7347   -3.8235 C.3       1 <0>        -0.1042
     15 C14         1.7024   -1.0200   -3.7102 C.3       1 <0>        -0.0200
     16 C15         2.3274   -1.2757   -2.3225 C.3       1 <0>        -0.0751
     17 C16         3.7201   -0.6836   -2.6102 C.3       1 <0>        -0.0886
     18 C17         3.9782   -1.2904   -3.9921 C.2       1 <0>        -0.1311
     19 C18         2.8181   -1.5031   -4.6130 C.2       1 <0>         0.0600
     20 N1          2.6396   -2.0712   -5.8740 N.pl3     1 <0>        -0.4342
     21 C19         2.1902   -3.3309   -6.1370 C.2       1 <0>         0.2710
     22 N2          2.1448   -3.5296   -7.4220 N.2       1 <0>        -0.4914
     23 C20         2.5613   -2.4128   -8.0732 C.ar      1 <0>         0.0451
     24 C21         2.8798   -1.4594   -7.0909 C.ar      1 <0>         0.0528
     25 C22         3.3344   -0.2037   -7.4662 C.ar      1 <0>        -0.1083
     26 C23         3.4695    0.1056   -8.8032 C.ar      1 <0>        -0.1007
     27 C24         3.1533   -0.8308   -9.7769 C.ar      1 <0>        -0.1274
     28 C25         2.7076   -2.0841   -9.4231 C.ar      1 <0>        -0.0643
     29 C26         1.5472    0.4678   -4.0269 C.3       1 <0>        -0.1479
     30 O1         -3.6749   -0.7697    2.7110 O.3       1 <0>        -0.5692
     31 H2         -0.0082    1.7593   -0.2151 H         1 <0>         0.0550
     32 H3         -1.3044    1.6965   -1.4334 H         1 <0>         0.0571
     33 H4         -1.7075    1.6331    0.2992 H         1 <0>         0.0595
     34 H5         -2.6555   -0.2960   -1.7062 H         1 <0>         0.0728
     35 H6         -2.2242   -1.8290   -0.9096 H         1 <0>         0.0684
     36 H7         -3.3514    0.6520    0.4783 H         1 <0>         0.0731
     37 H8         -4.2189   -0.8488    0.1287 H         1 <0>         0.0679
     38 H9         -1.4925    0.6388    2.2375 H         1 <0>         0.0801
     39 H10        -0.9840   -0.9235    2.9234 H         1 <0>         0.0684
     40 H11         0.9597   -1.4756    2.1145 H         1 <0>         0.1043
     41 H12         2.6883   -1.5133    0.3988 H         1 <0>         0.0681
     42 H13         1.4945   -2.6086   -0.3199 H         1 <0>         0.0739
     43 H14         1.9492    0.3389   -0.9426 H         1 <0>         0.0807
     44 H15        -0.0069    0.3831   -2.2399 H         1 <0>         0.0740
     45 H16        -0.2331   -2.6269   -1.9484 H         1 <0>         0.0612
     46 H17        -1.4465   -1.5839   -2.7024 H         1 <0>         0.0703
     47 H18         0.5455   -2.7818   -4.1089 H         1 <0>         0.0622
     48 H19        -0.2246   -1.2613   -4.6062 H         1 <0>         0.0623
     49 H20         2.4294   -2.3603   -2.1367 H         1 <0>         0.0863
     50 H21         3.7181    0.3966   -2.6337 H         1 <0>         0.0930
     51 H22         4.4498   -1.0583   -1.8890 H         1 <0>         0.0794
     52 H23         4.9535   -1.5106   -4.3993 H         1 <0>         0.1322
     53 H24         1.9129   -4.0580   -5.3881 H         1 <0>         0.2111
     54 H25         3.5816    0.5300   -6.7131 H         1 <0>         0.1195
     55 H26         3.8236    1.0835   -9.0944 H         1 <0>         0.1304
     56 H27         3.2631   -0.5762  -10.8207 H         1 <0>         0.1310
     57 H28         2.4624   -2.8076  -10.1866 H         1 <0>         0.1305
     58 H29         0.9751    0.9502   -3.2344 H         1 <0>         0.0735
     59 H30         2.5323    0.9291   -4.0963 H         1 <0>         0.0588
     60 H31         1.0236    0.5846   -4.9757 H         1 <0>         0.0570
     61 H32        -3.4202   -1.1314    3.5709 H         1 <0>         0.3786
@<TRIPOS>BOND
     1    1    2 1
     2    1   31 1
     3    1   32 1
     4    1   33 1
     5    2    8 1
     6    2   12 1
     7    2    3 1
     8    3    4 1
     9    3   34 1
    10    3   35 1
    11    4    5 1
    12    4   36 1
    13    4   37 1
    14    5    6 1
    15    5    7 1
    16    5   30 1
    17    7    8 1
    18    7   38 1
    19    7   39 1
    20    8    9 2
    21    9   10 1
    22    9   40 1
    23   10   11 1
    24   10   41 1
    25   10   42 1
    26   11   16 1
    27   11   12 1
    28   11   43 1
    29   12   13 1
    30   12   44 1
    31   13   14 1
    32   13   45 1
    33   13   46 1
    34   14   15 1
    35   14   47 1
    36   14   48 1
    37   15   19 1
    38   15   16 1
    39   15   29 1
    40   16   17 1
    41   16   49 1
    42   17   18 1
    43   17   50 1
    44   17   51 1
    45   18   19 2
    46   18   52 1
    47   19   20 1
    48   20   24 1
    49   20   21 1
    50   21   22 2
    51   21   53 1
    52   22   23 1
    53   23   28 ar
    54   23   24 ar
    55   24   25 ar
    56   25   26 ar
    57   25   54 1
    58   26   27 ar
    59   26   55 1
    60   27   28 ar
    61   27   56 1
    62   28   57 1
    63   29   58 1
    64   29   59 1
    65   29   60 1
    66   30   61 1
@<TRIPOS>MOLECULE
CHEMBL75474__7
   62    67     0     0     0
SMALL
USER_CHARGES

@<TRIPOS>ATOM
      1 C1         -0.9821    1.3339   -0.4573 C.3       1 <0>        -0.1498
      2 C2         -0.8778   -0.2004   -0.4892 C.3       1 <0>        -0.0113
      3 C3         -2.2768   -0.7455   -0.7834 C.3       1 <0>        -0.1004
      4 C4         -3.2356   -0.4220    0.3601 C.3       1 <0>        -0.1177
      5 C5         -2.7355   -1.0357    1.6670 C.3       1 <0>         0.1102
      6 H1         -2.6256   -2.1146    1.5471 H         1 <0>         0.0544
      7 C6         -1.3799   -0.4240    2.0372 C.3       1 <0>        -0.1202
      8 C7         -0.4341   -0.6457    0.8676 C.2       1 <0>        -0.0983
      9 C8          0.7015   -1.2327    1.0924 C.2       1 <0>        -0.1576
     10 C9          1.6687   -1.5829    0.0082 C.3       1 <0>        -0.0829
     11 C10         1.5361   -0.6385   -1.1988 C.3       1 <0>        -0.0578
     12 C11         0.0776   -0.5248   -1.6149 C.3       1 <0>        -0.0764
     13 C12        -0.3741   -1.6820   -2.4847 C.3       1 <0>        -0.1113
     14 C13         0.3833   -1.7347   -3.8235 C.3       1 <0>        -0.1062
     15 C14         1.7024   -1.0200   -3.7102 C.3       1 <0>        -0.0132
     16 C15         2.3274   -1.2757   -2.3225 C.3       1 <0>        -0.0735
     17 C16         3.7201   -0.6836   -2.6102 C.3       1 <0>        -0.0995
     18 C17         3.9782   -1.2904   -3.9921 C.2       1 <0>        -0.0614
     19 C18         2.8181   -1.5031   -4.6130 C.2       1 <0>        -0.0058
     20 N1          2.6396   -2.0712   -5.8740 N.pl3     1 <0>        -0.3586
     21 C19         2.1902   -3.3309   -6.1370 C.cat     1 <0>         0.3741
     22 N2          2.1448   -3.5296   -7.4220 N.pl3     1 <0>        -0.4883
     23 C20         2.5613   -2.4128   -8.0732 C.ar      1 <0>         0.0436
     24 C21         2.8798   -1.4594   -7.0909 C.ar      1 <0>         0.0781
     25 C22         3.3344   -0.2037   -7.4662 C.ar      1 <0>        -0.0845
     26 C23         3.4695    0.1056   -8.8032 C.ar      1 <0>        -0.0660
     27 C24         3.1533   -0.8308   -9.7769 C.ar      1 <0>        -0.0774
     28 C25         2.7076   -2.0841   -9.4231 C.ar      1 <0>        -0.0766
     29 C26         1.5472    0.4678   -4.0269 C.3       1 <0>        -0.1553
     30 O1         -3.6749   -0.7697    2.7110 O.3       1 <0>        -0.5677
     31 H2         -0.0082    1.7593   -0.2151 H         1 <0>         0.0560
     32 H3         -1.3044    1.6965   -1.4334 H         1 <0>         0.0571
     33 H4         -1.7075    1.6331    0.2992 H         1 <0>         0.0631
     34 H5         -2.6555   -0.2960   -1.7062 H         1 <0>         0.0720
     35 H6         -2.2242   -1.8290   -0.9096 H         1 <0>         0.0671
     36 H7         -3.3514    0.6520    0.4783 H         1 <0>         0.0749
     37 H8         -4.2189   -0.8488    0.1287 H         1 <0>         0.0698
     38 H9         -1.4925    0.6388    2.2375 H         1 <0>         0.0822
     39 H10        -0.9840   -0.9235    2.9234 H         1 <0>         0.0708
     40 H11         0.9597   -1.4756    2.1145 H         1 <0>         0.1074
     41 H12         2.6883   -1.5133    0.3988 H         1 <0>         0.0702
     42 H13         1.4945   -2.6086   -0.3199 H         1 <0>         0.0727
     43 H14         1.9492    0.3389   -0.9426 H         1 <0>         0.0859
     44 H15        -0.0069    0.3831   -2.2399 H         1 <0>         0.0748
     45 H16        -0.2331   -2.6269   -1.9484 H         1 <0>         0.0660
     46 H17        -1.4465   -1.5839   -2.7024 H         1 <0>         0.0761
     47 H18         0.5455   -2.7818   -4.1089 H         1 <0>         0.0554
     48 H19        -0.2246   -1.2613   -4.6062 H         1 <0>         0.0658
     49 H20         2.4294   -2.3603   -2.1367 H         1 <0>         0.0915
     50 H21         3.7181    0.3966   -2.6337 H         1 <0>         0.1080
     51 H22         4.4498   -1.0583   -1.8890 H         1 <0>         0.0946
     52 H23         4.9535   -1.5106   -4.3993 H         1 <0>         0.1444
     53 H24         1.9129   -4.0580   -5.3881 H         1 <0>         0.2632
     54 H25         3.5816    0.5300   -6.7131 H         1 <0>         0.1488
     55 H26         3.8236    1.0835   -9.0944 H         1 <0>         0.1570
     56 H27         3.2631   -0.5762  -10.8207 H         1 <0>         0.1577
     57 H28         2.4624   -2.8076  -10.1866 H         1 <0>         0.1540
     58 H29         0.9751    0.9502   -3.2344 H         1 <0>         0.0837
     59 H30         2.5323    0.9291   -4.0963 H         1 <0>         0.0630
     60 H31         1.0236    0.5846   -4.9757 H         1 <0>         0.0590
     61 H32        -3.4202   -1.1314    3.5709 H         1 <0>         0.3809
     62 H33         1.8573   -4.3511   -7.8502 H         1 <0>         0.4642
@<TRIPOS>BOND
     1    1    2 1
     2    1   31 1
     3    1   32 1
     4    1   33 1
     5    2    8 1
     6    2   12 1
     7    2    3 1
     8    3    4 1
     9    3   34 1
    10    3   35 1
    11    4    5 1
    12    4   36 1
    13    4   37 1
    14    5    6 1
    15    5    7 1
    16    5   30 1
    17    7    8 1
    18    7   38 1
    19    7   39 1
    20    8    9 2
    21    9   10 1
    22    9   40 1
    23   10   11 1
    24   10   41 1
    25   10   42 1
    26   11   16 1
    27   11   12 1
    28   11   43 1
    29   12   13 1
    30   12   44 1
    31   13   14 1
    32   13   45 1
    33   13   46 1
    34   14   15 1
    35   14   47 1
    36   14   48 1
    37   15   19 1
    38   15   16 1
    39   15   29 1
    40   16   17 1
    41   16   49 1
    42   17   18 1
    43   17   50 1
    44   17   51 1
    45   18   19 2
    46   18   52 1
    47   19   20 1
    48   20   24 1
    49   20   21 1
    50   21   22 2
    51   21   53 1
    52   22   23 1
    53   22   62 1
    54   23   28 ar
    55   23   24 ar
    56   24   25 ar
    57   25   26 ar
    58   25   54 1
    59   26   27 ar
    60   26   55 1
    61   27   28 ar
    62   27   56 1
    63   28   57 1
    64   29   58 1
    65   29   59 1
    66   29   60 1
    67   30   61 1
@<TRIPOS>MOLECULE
CHEMBL75474__8
   61    66     0     0     0
SMALL
USER_CHARGES

@<TRIPOS>ATOM
      1 C1          0.5707    1.5092    0.4680 C.3       1 <0>        -0.1556
      2 C2          0.7009   -0.0115    0.5173 C.3       1 <0>        -0.0023
      3 C3         -0.6053   -0.5712    1.1101 C.3       1 <0>        -0.1034
      4 C4         -0.8348   -0.0370    2.5193 C.3       1 <0>        -0.1140
      5 C5          0.3147   -0.4116    3.4525 C.3       1 <0>         0.1110
      6 H1          0.3923   -1.4975    3.5194 H         1 <0>         0.0540
      7 C6          1.6339    0.1571    2.9192 C.3       1 <0>        -0.1177
      8 C7          1.8019   -0.3404    1.4932 C.2       1 <0>        -0.1043
      9 C8          2.8454   -1.0515    1.2032 C.2       1 <0>        -0.1535
     10 C9          3.0581   -1.6869   -0.1393 C.3       1 <0>        -0.0860
     11 C10         2.3742   -0.8551   -1.2218 C.3       1 <0>        -0.0654
     12 C11         0.9205   -0.5958   -0.8514 C.3       1 <0>        -0.0638
     13 C12         0.2231    0.1142   -1.9979 C.3       1 <0>        -0.1084
     14 C13         1.1975    0.5628   -3.0761 C.3       1 <0>        -0.1071
     15 C14         2.4426    1.2746   -2.5581 C.3       1 <0>        -0.0094
     16 C15         3.1173    0.4549   -1.4489 C.3       1 <0>        -0.0663
     17 C16         4.5257    0.1564   -1.9987 C.3       1 <0>        -0.0951
     18 C17         4.5639    0.7251   -3.3928 C.2       1 <0>        -0.1254
     19 C18         3.4438    1.3282   -3.6996 C.2       1 <0>         0.0628
     20 N1          3.1944    1.9499   -4.9227 N.pl3     1 <0>        -0.4368
     21 C19         2.3978    1.4769   -5.9226 C.2       1 <0>         0.2691
     22 N2          2.3910    2.3115   -6.9207 N.2       1 <0>        -0.4919
     23 C20         3.1819    3.3772   -6.6320 C.ar      1 <0>         0.0447
     24 C21         3.7046    3.1640   -5.3449 C.ar      1 <0>         0.0542
     25 C22         4.5537    4.1032   -4.7779 C.ar      1 <0>        -0.1079
     26 C23         4.8796    5.2450   -5.4790 C.ar      1 <0>        -0.1008
     27 C24         4.3637    5.4619   -6.7485 C.ar      1 <0>        -0.1275
     28 C25         3.5254    4.5377   -7.3299 C.ar      1 <0>        -0.0646
     29 C26         2.1227    2.7018   -2.1037 C.3       1 <0>        -0.1462
     30 O1          0.0644    0.1223    4.7555 O.3       1 <0>        -0.5695
     31 H2          1.5166    1.9447    0.1459 H         1 <0>         0.0649
     32 H3         -0.2144    1.7841   -0.2363 H         1 <0>         0.0616
     33 H4          0.3170    1.8845    1.4595 H         1 <0>         0.0606
     34 H5         -1.4376   -0.2828    0.4669 H         1 <0>         0.0716
     35 H6         -0.5370   -1.6606    1.1393 H         1 <0>         0.0633
     36 H7         -0.9727    1.0413    2.5133 H         1 <0>         0.0749
     37 H8         -1.7583   -0.4862    2.9159 H         1 <0>         0.0657
     38 H9          1.6153    1.2416    2.9506 H         1 <0>         0.0813
     39 H10         2.4608   -0.2103    3.5310 H         1 <0>         0.0674
     40 H11         3.6009   -1.1951    1.9635 H         1 <0>         0.1037
     41 H12         4.1290   -1.7586   -0.3415 H         1 <0>         0.0739
     42 H13         2.6360   -2.6961   -0.1297 H         1 <0>         0.0746
     43 H14         2.3952   -1.4275   -2.1649 H         1 <0>         0.0741
     44 H15         0.4482   -1.6116   -0.8148 H         1 <0>         0.0590
     45 H16        -0.4615   -0.6216   -2.4684 H         1 <0>         0.0573
     46 H17        -0.4014    0.9363   -1.6855 H         1 <0>         0.0736
     47 H18         1.5081   -0.3118   -3.6574 H         1 <0>         0.0608
     48 H19         0.6699    1.2402   -3.7595 H         1 <0>         0.0597
     49 H20         3.1833    1.0288   -0.5191 H         1 <0>         0.0912
     50 H21         5.2860    0.6277   -1.3708 H         1 <0>         0.0835
     51 H22         4.6988   -0.9239   -2.0274 H         1 <0>         0.0876
     52 H23         5.4151    0.6453   -4.0607 H         1 <0>         0.1312
     53 H24         1.8523    0.5453   -5.8911 H         1 <0>         0.2101
     54 H25         4.9582    3.9407   -3.7898 H         1 <0>         0.1198
     55 H26         5.5407    5.9756   -5.0367 H         1 <0>         0.1302
     56 H27         4.6263    6.3604   -7.2872 H         1 <0>         0.1307
     57 H28         3.1268    4.7138   -8.3180 H         1 <0>         0.1302
     58 H29         1.2902    2.6812   -1.4005 H         1 <0>         0.0758
     59 H30         2.9980    3.1333   -1.6180 H         1 <0>         0.0566
     60 H31         1.8523    3.3067   -2.9692 H         1 <0>         0.0534
     61 H32         0.7554   -0.0773    5.4018 H         1 <0>         0.3787
@<TRIPOS>BOND
     1    1    2 1
     2    1   31 1
     3    1   32 1
     4    1   33 1
     5    2    8 1
     6    2   12 1
     7    2    3 1
     8    3    4 1
     9    3   34 1
    10    3   35 1
    11    4    5 1
    12    4   36 1
    13    4   37 1
    14    5    6 1
    15    5    7 1
    16    5   30 1
    17    7    8 1
    18    7   38 1
    19    7   39 1
    20    8    9 2
    21    9   10 1
    22    9   40 1
    23   10   11 1
    24   10   41 1
    25   10   42 1
    26   11   16 1
    27   11   12 1
    28   11   43 1
    29   12   13 1
    30   12   44 1
    31   13   14 1
    32   13   45 1
    33   13   46 1
    34   14   15 1
    35   14   47 1
    36   14   48 1
    37   15   19 1
    38   15   16 1
    39   15   29 1
    40   16   17 1
    41   16   49 1
    42   17   18 1
    43   17   50 1
    44   17   51 1
    45   18   19 2
    46   18   52 1
    47   19   20 1
    48   20   24 1
    49   20   21 1
    50   21   22 2
    51   21   53 1
    52   22   23 1
    53   23   28 ar
    54   23   24 ar
    55   24   25 ar
    56   25   26 ar
    57   25   54 1
    58   26   27 ar
    59   26   55 1
    60   27   28 ar
    61   27   56 1
    62   28   57 1
    63   29   58 1
    64   29   59 1
    65   29   60 1
    66   30   61 1
@<TRIPOS>MOLECULE
CHEMBL75474__9
   62    67     0     0     0
SMALL
USER_CHARGES

@<TRIPOS>ATOM
      1 C1          0.5707    1.5092    0.4680 C.3       1 <0>        -0.1554
      2 C2          0.7009   -0.0115    0.5173 C.3       1 <0>        -0.0041
      3 C3         -0.6053   -0.5712    1.1101 C.3       1 <0>        -0.1034
      4 C4         -0.8348   -0.0370    2.5193 C.3       1 <0>        -0.1160
      5 C5          0.3147   -0.4116    3.4525 C.3       1 <0>         0.1105
      6 H1          0.3923   -1.4975    3.5194 H         1 <0>         0.0549
      7 C6          1.6339    0.1571    2.9192 C.3       1 <0>        -0.1196
      8 C7          1.8019   -0.3404    1.4932 C.2       1 <0>        -0.1016
      9 C8          2.8454   -1.0515    1.2032 C.2       1 <0>        -0.1575
     10 C9          3.0581   -1.6869   -0.1393 C.3       1 <0>        -0.0869
     11 C10         2.3742   -0.8551   -1.2218 C.3       1 <0>        -0.0651
     12 C11         0.9205   -0.5958   -0.8514 C.3       1 <0>        -0.0670
     13 C12         0.2231    0.1142   -1.9979 C.3       1 <0>        -0.1104
     14 C13         1.1975    0.5628   -3.0761 C.3       1 <0>        -0.1102
     15 C14         2.4426    1.2746   -2.5581 C.3       1 <0>        -0.0015
     16 C15         3.1173    0.4549   -1.4489 C.3       1 <0>        -0.0677
     17 C16         4.5257    0.1564   -1.9987 C.3       1 <0>        -0.1073
     18 C17         4.5639    0.7251   -3.3928 C.2       1 <0>        -0.0594
     19 C18         3.4438    1.3282   -3.6996 C.2       1 <0>         0.0004
     20 N1          3.1944    1.9499   -4.9227 N.pl3     1 <0>        -0.3617
     21 C19         2.3978    1.4769   -5.9226 C.cat     1 <0>         0.3720
     22 N2          2.3910    2.3115   -6.9207 N.pl3     1 <0>        -0.4880
     23 C20         3.1819    3.3772   -6.6320 C.ar      1 <0>         0.0435
     24 C21         3.7046    3.1640   -5.3449 C.ar      1 <0>         0.0792
     25 C22         4.5537    4.1032   -4.7779 C.ar      1 <0>        -0.0840
     26 C23         4.8796    5.2450   -5.4790 C.ar      1 <0>        -0.0660
     27 C24         4.3637    5.4619   -6.7485 C.ar      1 <0>        -0.0773
     28 C25         3.5254    4.5377   -7.3299 C.ar      1 <0>        -0.0768
     29 C26         2.1227    2.7018   -2.1037 C.3       1 <0>        -0.1530
     30 O1          0.0644    0.1223    4.7555 O.3       1 <0>        -0.5681
     31 H2          1.5166    1.9447    0.1459 H         1 <0>         0.0618
     32 H3         -0.2144    1.7841   -0.2363 H         1 <0>         0.0605
     33 H4          0.3170    1.8845    1.4595 H         1 <0>         0.0648
     34 H5         -1.4376   -0.2828    0.4669 H         1 <0>         0.0714
     35 H6         -0.5370   -1.6606    1.1393 H         1 <0>         0.0648
     36 H7         -0.9727    1.0413    2.5133 H         1 <0>         0.0752
     37 H8         -1.7583   -0.4862    2.9159 H         1 <0>         0.0686
     38 H9          1.6153    1.2416    2.9506 H         1 <0>         0.0819
     39 H10         2.4608   -0.2103    3.5310 H         1 <0>         0.0696
     40 H11         3.6009   -1.1951    1.9635 H         1 <0>         0.1068
     41 H12         4.1290   -1.7586   -0.3415 H         1 <0>         0.0747
     42 H13         2.6360   -2.6961   -0.1297 H         1 <0>         0.0784
     43 H14         2.3952   -1.4275   -2.1649 H         1 <0>         0.0739
     44 H15         0.4482   -1.6116   -0.8148 H         1 <0>         0.0650
     45 H16        -0.4615   -0.6216   -2.4684 H         1 <0>         0.0625
     46 H17        -0.4014    0.9363   -1.6855 H         1 <0>         0.0778
     47 H18         1.5081   -0.3118   -3.6574 H         1 <0>         0.0634
     48 H19         0.6699    1.2402   -3.7595 H         1 <0>         0.0540
     49 H20         3.1833    1.0288   -0.5191 H         1 <0>         0.1013
     50 H21         5.2860    0.6277   -1.3708 H         1 <0>         0.1006
     51 H22         4.6988   -0.9239   -2.0274 H         1 <0>         0.1036
     52 H23         5.4151    0.6453   -4.0607 H         1 <0>         0.1428
     53 H24         1.8523    0.5453   -5.8911 H         1 <0>         0.2619
     54 H25         4.9582    3.9407   -3.7898 H         1 <0>         0.1492
     55 H26         5.5407    5.9756   -5.0367 H         1 <0>         0.1570
     56 H27         4.6263    6.3604   -7.2872 H         1 <0>         0.1576
     57 H28         3.1268    4.7138   -8.3180 H         1 <0>         0.1539
     58 H29         1.2902    2.6812   -1.4005 H         1 <0>         0.0860
     59 H30         2.9980    3.1333   -1.6180 H         1 <0>         0.0644
     60 H31         1.8523    3.3067   -2.9692 H         1 <0>         0.0490
     61 H32         0.7554   -0.0773    5.4018 H         1 <0>         0.3809
     62 H33         1.8963    2.1906   -7.7463 H         1 <0>         0.4641
@<TRIPOS>BOND
     1    1    2 1
     2    1   31 1
     3    1   32 1
     4    1   33 1
     5    2    8 1
     6    2   12 1
     7    2    3 1
     8    3    4 1
     9    3   34 1
    10    3   35 1
    11    4    5 1
    12    4   36 1
    13    4   37 1
    14    5    6 1
    15    5    7 1
    16    5   30 1
    17    7    8 1
    18    7   38 1
    19    7   39 1
    20    8    9 2
    21    9   10 1
    22    9   40 1
    23   10   11 1
    24   10   41 1
    25   10   42 1
    26   11   16 1
    27   11   12 1
    28   11   43 1
    29   12   13 1
    30   12   44 1
    31   13   14 1
    32   13   45 1
    33   13   46 1
    34   14   15 1
    35   14   47 1
    36   14   48 1
    37   15   19 1
    38   15   16 1
    39   15   29 1
    40   16   17 1
    41   16   49 1
    42   17   18 1
    43   17   50 1
    44   17   51 1
    45   18   19 2
    46   18   52 1
    47   19   20 1
    48   20   24 1
    49   20   21 1
    50   21   22 2
    51   21   53 1
    52   22   23 1
    53   22   62 1
    54   23   28 ar
    55   23   24 ar
    56   24   25 ar
    57   25   26 ar
    58   25   54 1
    59   26   27 ar
    60   26   55 1
    61   27   28 ar
    62   27   56 1
    63   28   57 1
    64   29   58 1
    65   29   59 1
    66   29   60 1
    67   30   61 1
@<TRIPOS>MOLECULE
CHEMBL75474__10
   61    66     0     0     0
SMALL
USER_CHARGES

@<TRIPOS>ATOM
      1 C1         -0.0607    1.2173    0.2306 C.3       1 <0>        -0.1417
      2 C2          0.0082   -0.3076    0.1195 C.3       1 <0>        -0.0062
      3 C3         -1.4289   -0.8368    0.2168 C.3       1 <0>        -0.1031
      4 C4         -1.6560   -1.5770    1.5261 C.3       1 <0>        -0.1068
      5 C5         -1.2354   -0.7652    2.7429 C.3       1 <0>         0.1123
      6 H1         -1.4411   -1.3432    3.6506 H         1 <0>         0.0520
      7 C6          0.2599   -0.4429    2.6841 C.3       1 <0>        -0.1221
      8 C7          0.7743   -0.8256    1.3067 C.2       1 <0>        -0.0980
      9 C8          1.8444   -1.5528    1.2306 C.2       1 <0>        -0.1646
     10 C9          2.4608   -1.9279   -0.0949 C.3       1 <0>        -0.0849
     11 C10         1.3423   -2.0468   -1.1202 C.3       1 <0>        -0.0576
     12 C11         0.5969   -0.7016   -1.2168 C.3       1 <0>        -0.0683
     13 C12         1.4217    0.3596   -1.9147 C.3       1 <0>        -0.1043
     14 C13         1.8160   -0.0983   -3.3374 C.3       1 <0>        -0.1050
     15 C14         2.5930   -1.3812   -3.2404 C.3       1 <0>        -0.0222
     16 C15         1.7591   -2.4446   -2.4961 C.3       1 <0>        -0.0709
     17 C16         2.7023   -3.6364   -2.7188 C.3       1 <0>        -0.0851
     18 C17         3.0066   -3.4294   -4.2094 C.2       1 <0>        -0.1316
     19 C18         2.9196   -2.1300   -4.5095 C.2       1 <0>         0.0617
     20 N1          3.0988   -1.5504   -5.7651 N.pl3     1 <0>        -0.4338
     21 C19         2.1188   -1.0652   -6.5789 C.2       1 <0>         0.2720
     22 N2          2.6402   -0.5951   -7.6744 N.2       1 <0>        -0.4917
     23 C20         3.9896   -0.7453   -7.6406 C.ar      1 <0>         0.0451
     24 C21         4.3044   -1.3552   -6.4141 C.ar      1 <0>         0.0526
     25 C22         5.6264   -1.6311   -6.0969 C.ar      1 <0>        -0.1085
     26 C23         6.6280   -1.3029   -6.9860 C.ar      1 <0>        -0.1008
     27 C24         6.3230   -0.6977   -8.1967 C.ar      1 <0>        -0.1275
     28 C25         5.0164   -0.4229   -8.5314 C.ar      1 <0>        -0.0644
     29 C26         3.9479   -1.1022   -2.5904 C.3       1 <0>        -0.1488
     30 O1         -1.9863    0.4510    2.7970 O.3       1 <0>        -0.5648
     31 H2          0.9493    1.6273    0.2352 H         1 <0>         0.0506
     32 H3         -0.6120    1.6190   -0.6196 H         1 <0>         0.0546
     33 H4         -0.5684    1.4917    1.1553 H         1 <0>         0.0676
     34 H5         -2.1187    0.0036    0.1407 H         1 <0>         0.0712
     35 H6         -1.6069   -1.5188   -0.6196 H         1 <0>         0.0618
     36 H7         -2.7200   -1.8202    1.6161 H         1 <0>         0.0651
     37 H8         -1.0971   -2.5162    1.5120 H         1 <0>         0.0734
     38 H9          0.4298    0.6164    2.8752 H         1 <0>         0.0819
     39 H10         0.7903   -1.0254    3.4438 H         1 <0>         0.0702
     40 H11         2.3144   -1.9021    2.1292 H         1 <0>         0.1045
     41 H12         3.1553   -1.1291   -0.3359 H         1 <0>         0.0817
     42 H13         2.9867   -2.8730    0.0110 H         1 <0>         0.0704
     43 H14         0.6115   -2.8016   -0.7356 H         1 <0>         0.0735
     44 H15        -0.2718   -0.8938   -1.8820 H         1 <0>         0.0617
     45 H16         0.8298    1.2721   -2.0521 H         1 <0>         0.0661
     46 H17         2.3085    0.5973   -1.3405 H         1 <0>         0.0666
     47 H18         0.9124   -0.2500   -3.9312 H         1 <0>         0.0630
     48 H19         2.4283    0.6759   -3.8067 H         1 <0>         0.0634
     49 H20         0.8291   -2.6499   -3.0937 H         1 <0>         0.0776
     50 H21         3.5899   -3.5995   -2.1078 H         1 <0>         0.0949
     51 H22         2.1681   -4.5798   -2.5724 H         1 <0>         0.0784
     52 H23         3.2530   -4.2165   -4.9030 H         1 <0>         0.1324
     53 H24         1.0637   -1.0708   -6.3484 H         1 <0>         0.2110
     54 H25         5.8706   -2.1013   -5.1558 H         1 <0>         0.1198
     55 H26         7.6569   -1.5180   -6.7382 H         1 <0>         0.1303
     56 H27         7.1166   -0.4453   -8.8843 H         1 <0>         0.1309
     57 H28         4.7866    0.0492   -9.4752 H         1 <0>         0.1305
     58 H29         3.7994   -0.5427   -1.6668 H         1 <0>         0.0717
     59 H30         4.4451   -2.0462   -2.3673 H         1 <0>         0.0618
     60 H31         4.5653   -0.5189   -3.2734 H         1 <0>         0.0545
     61 H32        -1.7664    1.0158    3.5504 H         1 <0>         0.3760
@<TRIPOS>BOND
     1    1    2 1
     2    1   31 1
     3    1   32 1
     4    1   33 1
     5    2    8 1
     6    2   12 1
     7    2    3 1
     8    3    4 1
     9    3   34 1
    10    3   35 1
    11    4    5 1
    12    4   36 1
    13    4   37 1
    14    5    6 1
    15    5    7 1
    16    5   30 1
    17    7    8 1
    18    7   38 1
    19    7   39 1
    20    8    9 2
    21    9   10 1
    22    9   40 1
    23   10   11 1
    24   10   41 1
    25   10   42 1
    26   11   16 1
    27   11   12 1
    28   11   43 1
    29   12   13 1
    30   12   44 1
    31   13   14 1
    32   13   45 1
    33   13   46 1
    34   14   15 1
    35   14   47 1
    36   14   48 1
    37   15   19 1
    38   15   16 1
    39   15   29 1
    40   16   17 1
    41   16   49 1
    42   17   18 1
    43   17   50 1
    44   17   51 1
    45   18   19 2
    46   18   52 1
    47   19   20 1
    48   20   24 1
    49   20   21 1
    50   21   22 2
    51   21   53 1
    52   22   23 1
    53   23   28 ar
    54   23   24 ar
    55   24   25 ar
    56   25   26 ar
    57   25   54 1
    58   26   27 ar
    59   26   55 1
    60   27   28 ar
    61   27   56 1
    62   28   57 1
    63   29   58 1
    64   29   59 1
    65   29   60 1
    66   30   61 1
@<TRIPOS>MOLECULE
CHEMBL75474__11
   62    67     0     0     0
SMALL
USER_CHARGES

@<TRIPOS>ATOM
      1 C1         -0.0607    1.2173    0.2306 C.3       1 <0>        -0.1431
      2 C2          0.0082   -0.3076    0.1195 C.3       1 <0>        -0.0076
      3 C3         -1.4289   -0.8368    0.2168 C.3       1 <0>        -0.1022
      4 C4         -1.6560   -1.5770    1.5261 C.3       1 <0>        -0.1081
      5 C5         -1.2354   -0.7652    2.7429 C.3       1 <0>         0.1111
      6 H1         -1.4411   -1.3432    3.6506 H         1 <0>         0.0546
      7 C6          0.2599   -0.4429    2.6841 C.3       1 <0>        -0.1244
      8 C7          0.7743   -0.8256    1.3067 C.2       1 <0>        -0.0935
      9 C8          1.8444   -1.5528    1.2306 C.2       1 <0>        -0.1692
     10 C9          2.4608   -1.9279   -0.0949 C.3       1 <0>        -0.0846
     11 C10         1.3423   -2.0468   -1.1202 C.3       1 <0>        -0.0632
     12 C11         0.5969   -0.7016   -1.2168 C.3       1 <0>        -0.0668
     13 C12         1.4217    0.3596   -1.9147 C.3       1 <0>        -0.1060
     14 C13         1.8160   -0.0983   -3.3374 C.3       1 <0>        -0.1097
     15 C14         2.5930   -1.3812   -3.2404 C.3       1 <0>        -0.0166
     16 C15         1.7591   -2.4446   -2.4961 C.3       1 <0>        -0.0670
     17 C16         2.7023   -3.6364   -2.7188 C.3       1 <0>        -0.0963
     18 C17         3.0066   -3.4294   -4.2094 C.2       1 <0>        -0.0617
     19 C18         2.9196   -2.1300   -4.5095 C.2       1 <0>        -0.0039
     20 N1          3.0988   -1.5504   -5.7651 N.pl3     1 <0>        -0.3585
     21 C19         2.1188   -1.0652   -6.5789 C.cat     1 <0>         0.3755
     22 N2          2.6402   -0.5951   -7.6744 N.pl3     1 <0>        -0.4885
     23 C20         3.9896   -0.7453   -7.6406 C.ar      1 <0>         0.0435
     24 C21         4.3044   -1.3552   -6.4141 C.ar      1 <0>         0.0780
     25 C22         5.6264   -1.6311   -6.0969 C.ar      1 <0>        -0.0847
     26 C23         6.6280   -1.3029   -6.9860 C.ar      1 <0>        -0.0662
     27 C24         6.3230   -0.6977   -8.1967 C.ar      1 <0>        -0.0776
     28 C25         5.0164   -0.4229   -8.5314 C.ar      1 <0>        -0.0766
     29 C26         3.9479   -1.1022   -2.5904 C.3       1 <0>        -0.1558
     30 O1         -1.9863    0.4510    2.7970 O.3       1 <0>        -0.5654
     31 H2          0.9493    1.6273    0.2352 H         1 <0>         0.0506
     32 H3         -0.6120    1.6190   -0.6196 H         1 <0>         0.0542
     33 H4         -0.5684    1.4917    1.1553 H         1 <0>         0.0712
     34 H5         -2.1187    0.0036    0.1407 H         1 <0>         0.0726
     35 H6         -1.6069   -1.5188   -0.6196 H         1 <0>         0.0603
     36 H7         -2.7200   -1.8202    1.6161 H         1 <0>         0.0674
     37 H8         -1.0971   -2.5162    1.5120 H         1 <0>         0.0734
     38 H9          0.4298    0.6164    2.8752 H         1 <0>         0.0836
     39 H10         0.7903   -1.0254    3.4438 H         1 <0>         0.0726
     40 H11         2.3144   -1.9021    2.1292 H         1 <0>         0.1075
     41 H12         3.1553   -1.1291   -0.3359 H         1 <0>         0.0805
     42 H13         2.9867   -2.8730    0.0110 H         1 <0>         0.0722
     43 H14         0.6115   -2.8016   -0.7356 H         1 <0>         0.0810
     44 H15        -0.2718   -0.8938   -1.8820 H         1 <0>         0.0624
     45 H16         0.8298    1.2721   -2.0521 H         1 <0>         0.0711
     46 H17         2.3085    0.5973   -1.3405 H         1 <0>         0.0713
     47 H18         0.9124   -0.2500   -3.9312 H         1 <0>         0.0631
     48 H19         2.4283    0.6759   -3.8067 H         1 <0>         0.0630
     49 H20         0.8291   -2.6499   -3.0937 H         1 <0>         0.0822
     50 H21         3.5899   -3.5995   -2.1078 H         1 <0>         0.1096
     51 H22         2.1681   -4.5798   -2.5724 H         1 <0>         0.0937
     52 H23         3.2530   -4.2165   -4.9030 H         1 <0>         0.1445
     53 H24         1.0637   -1.0708   -6.3484 H         1 <0>         0.2632
     54 H25         5.8706   -2.1013   -5.1558 H         1 <0>         0.1490
     55 H26         7.6569   -1.5180   -6.7382 H         1 <0>         0.1569
     56 H27         7.1166   -0.4453   -8.8843 H         1 <0>         0.1576
     57 H28         4.7866    0.0492   -9.4752 H         1 <0>         0.1539
     58 H29         3.7994   -0.5427   -1.6668 H         1 <0>         0.0815
     59 H30         4.4451   -2.0462   -2.3673 H         1 <0>         0.0670
     60 H31         4.5653   -0.5189   -3.2734 H         1 <0>         0.0547
     61 H32        -1.7664    1.0158    3.5504 H         1 <0>         0.3783
     62 H33         2.1407   -0.1977   -8.4048 H         1 <0>         0.4642
@<TRIPOS>BOND
     1    1    2 1
     2    1   31 1
     3    1   32 1
     4    1   33 1
     5    2    8 1
     6    2   12 1
     7    2    3 1
     8    3    4 1
     9    3   34 1
    10    3   35 1
    11    4    5 1
    12    4   36 1
    13    4   37 1
    14    5    6 1
    15    5    7 1
    16    5   30 1
    17    7    8 1
    18    7   38 1
    19    7   39 1
    20    8    9 2
    21    9   10 1
    22    9   40 1
    23   10   11 1
    24   10   41 1
    25   10   42 1
    26   11   16 1
    27   11   12 1
    28   11   43 1
    29   12   13 1
    30   12   44 1
    31   13   14 1
    32   13   45 1
    33   13   46 1
    34   14   15 1
    35   14   47 1
    36   14   48 1
    37   15   19 1
    38   15   16 1
    39   15   29 1
    40   16   17 1
    41   16   49 1
    42   17   18 1
    43   17   50 1
    44   17   51 1
    45   18   19 2
    46   18   52 1
    47   19   20 1
    48   20   24 1
    49   20   21 1
    50   21   22 2
    51   21   53 1
    52   22   23 1
    53   22   62 1
    54   23   28 ar
    55   23   24 ar
    56   24   25 ar
    57   25   26 ar
    58   25   54 1
    59   26   27 ar
    60   26   55 1
    61   27   28 ar
    62   27   56 1
    63   28   57 1
    64   29   58 1
    65   29   59 1
    66   29   60 1
    67   30   61 1
@<TRIPOS>MOLECULE
CHEMBL75474__12
   61    66     0     0     0
SMALL
USER_CHARGES

@<TRIPOS>ATOM
      1 C1         -0.4733    1.3708   -0.8234 C.3       1 <0>        -0.1334
      2 C2         -0.2866   -0.1390   -0.6609 C.3       1 <0>        -0.0114
      3 C3         -1.6319   -0.7505   -0.2753 C.3       1 <0>        -0.0938
      4 C4         -1.7817   -0.7718    1.2452 C.3       1 <0>        -0.1115
      5 C5         -1.1144    0.4460    1.8812 C.3       1 <0>         0.1072
      6 H1         -1.4001    0.5099    2.9311 H         1 <0>         0.0534
      7 C6          0.4111    0.3087    1.7734 C.3       1 <0>        -0.1202
      8 C7          0.7007   -0.3773    0.4482 C.2       1 <0>        -0.0982
      9 C8          1.7380   -1.1435    0.3363 C.2       1 <0>        -0.1637
     10 C9          2.0764   -1.9096   -0.9059 C.3       1 <0>        -0.0823
     11 C10         0.8261   -2.0758   -1.7826 C.3       1 <0>        -0.0727
     12 C11         0.1940   -0.7100   -1.9916 C.3       1 <0>        -0.0650
     13 C12        -1.0253   -0.8643   -2.9117 C.3       1 <0>        -0.1123
     14 C13        -0.5523   -1.3777   -4.2693 C.3       1 <0>        -0.1066
     15 C14         0.1271   -2.7182   -4.1329 C.3       1 <0>        -0.0241
     16 C15         1.2686   -2.7017   -3.1081 C.3       1 <0>        -0.0713
     17 C16         1.3290   -4.2436   -2.8590 C.3       1 <0>        -0.0949
     18 C17        -0.1219   -4.6685   -2.9974 C.2       1 <0>        -0.1296
     19 C18        -0.7990   -3.8194   -3.6882 C.2       1 <0>         0.0800
     20 N1         -2.1549   -3.9069   -4.0023 N.pl3     1 <0>        -0.4338
     21 C19        -3.1974   -3.6343   -3.1676 C.2       1 <0>         0.2702
     22 N2         -4.3261   -3.8196   -3.7877 N.2       1 <0>        -0.4897
     23 C20        -4.0876   -4.2236   -5.0623 C.ar      1 <0>         0.0450
     24 C21        -2.6922   -4.2807   -5.2207 C.ar      1 <0>         0.0568
     25 C22        -2.1485   -4.6631   -6.4382 C.ar      1 <0>        -0.1117
     26 C23        -2.9801   -4.9835   -7.4905 C.ar      1 <0>        -0.1011
     27 C24        -4.3582   -4.9256   -7.3405 C.ar      1 <0>        -0.1277
     28 C25        -4.9155   -4.5551   -6.1376 C.ar      1 <0>        -0.0642
     29 C26         0.7269   -3.1033   -5.4867 C.3       1 <0>        -0.1512
     30 O1         -1.5353    1.6297    1.2002 O.3       1 <0>        -0.5515
     31 H2          0.1418    1.7261   -1.6502 H         1 <0>         0.0307
     32 H3         -1.5212    1.5871   -1.0312 H         1 <0>         0.0601
     33 H4         -0.1734    1.8750    0.0953 H         1 <0>         0.0776
     34 H5         -2.4365   -0.1571   -0.7095 H         1 <0>         0.0689
     35 H6         -1.6891   -1.7693   -0.6585 H         1 <0>         0.0564
     36 H7         -2.8415   -0.7726    1.5000 H         1 <0>         0.0657
     37 H8         -1.3200   -1.6780    1.6373 H         1 <0>         0.0713
     38 H9          0.8757    1.2945    1.7915 H         1 <0>         0.0779
     39 H10         0.7893   -0.2973    2.5967 H         1 <0>         0.0762
     40 H11         2.3973   -1.2354    1.1867 H         1 <0>         0.1002
     41 H12         2.8410   -1.3709   -1.4655 H         1 <0>         0.0718
     42 H13         2.4582   -2.8928   -0.6311 H         1 <0>         0.0700
     43 H14         0.1156   -2.7361   -1.2853 H         1 <0>         0.0748
     44 H15         0.9270   -0.0377   -2.4373 H         1 <0>         0.0734
     45 H16        -1.7250   -1.5768   -2.4749 H         1 <0>         0.0642
     46 H17        -1.5139    0.1020   -3.0362 H         1 <0>         0.0660
     47 H18        -1.4109   -1.4774   -4.9334 H         1 <0>         0.0585
     48 H19         0.1497   -0.6624   -4.6979 H         1 <0>         0.0676
     49 H20         2.2009   -2.2782   -3.4815 H         1 <0>         0.1022
     50 H21         1.9473   -4.7319   -3.6123 H         1 <0>         0.0874
     51 H22         1.6996   -4.4579   -1.8565 H         1 <0>         0.0826
     52 H23        -0.5486   -5.5605   -2.5630 H         1 <0>         0.1272
     53 H24        -3.1007   -3.3122   -2.1413 H         1 <0>         0.2082
     54 H25        -1.0766   -4.7095   -6.5618 H         1 <0>         0.1231
     55 H26        -2.5558   -5.2811   -8.4380 H         1 <0>         0.1299
     56 H27        -4.9987   -5.1786   -8.1724 H         1 <0>         0.1305
     57 H28        -5.9891   -4.5114   -6.0285 H         1 <0>         0.1301
     58 H29         1.4621   -2.3555   -5.7843 H         1 <0>         0.0642
     59 H30         1.2108   -4.0766   -5.4060 H         1 <0>         0.0599
     60 H31        -0.0649   -3.1520   -6.2342 H         1 <0>         0.0594
     61 H32        -1.1312    2.4414    1.5360 H         1 <0>         0.3730
@<TRIPOS>BOND
     1    1    2 1
     2    1   31 1
     3    1   32 1
     4    1   33 1
     5    2    8 1
     6    2   12 1
     7    2    3 1
     8    3    4 1
     9    3   34 1
    10    3   35 1
    11    4    5 1
    12    4   36 1
    13    4   37 1
    14    5    6 1
    15    5    7 1
    16    5   30 1
    17    7    8 1
    18    7   38 1
    19    7   39 1
    20    8    9 2
    21    9   10 1
    22    9   40 1
    23   10   11 1
    24   10   41 1
    25   10   42 1
    26   11   16 1
    27   11   12 1
    28   11   43 1
    29   12   13 1
    30   12   44 1
    31   13   14 1
    32   13   45 1
    33   13   46 1
    34   14   15 1
    35   14   47 1
    36   14   48 1
    37   15   19 1
    38   15   16 1
    39   15   29 1
    40   16   17 1
    41   16   49 1
    42   17   18 1
    43   17   50 1
    44   17   51 1
    45   18   19 2
    46   18   52 1
    47   19   20 1
    48   20   24 1
    49   20   21 1
    50   21   22 2
    51   21   53 1
    52   22   23 1
    53   23   28 ar
    54   23   24 ar
    55   24   25 ar
    56   25   26 ar
    57   25   54 1
    58   26   27 ar
    59   26   55 1
    60   27   28 ar
    61   27   56 1
    62   28   57 1
    63   29   58 1
    64   29   59 1
    65   29   60 1
    66   30   61 1
@<TRIPOS>MOLECULE
CHEMBL75474__13
   62    67     0     0     0
SMALL
USER_CHARGES

@<TRIPOS>ATOM
      1 C1         -0.4733    1.3708   -0.8234 C.3       1 <0>        -0.1361
      2 C2         -0.2866   -0.1390   -0.6609 C.3       1 <0>        -0.0116
      3 C3         -1.6319   -0.7505   -0.2753 C.3       1 <0>        -0.0909
      4 C4         -1.7817   -0.7718    1.2452 C.3       1 <0>        -0.1120
      5 C5         -1.1144    0.4460    1.8812 C.3       1 <0>         0.1060
      6 H1         -1.4001    0.5099    2.9311 H         1 <0>         0.0566
      7 C6          0.4111    0.3087    1.7734 C.3       1 <0>        -0.1226
      8 C7          0.7007   -0.3773    0.4482 C.2       1 <0>        -0.0998
      9 C8          1.7380   -1.1435    0.3363 C.2       1 <0>        -0.1625
     10 C9          2.0764   -1.9096   -0.9059 C.3       1 <0>        -0.0840
     11 C10         0.8261   -2.0758   -1.7826 C.3       1 <0>        -0.0746
     12 C11         0.1940   -0.7100   -1.9916 C.3       1 <0>        -0.0672
     13 C12        -1.0253   -0.8643   -2.9117 C.3       1 <0>        -0.1114
     14 C13        -0.5523   -1.3777   -4.2693 C.3       1 <0>        -0.1138
     15 C14         0.1271   -2.7182   -4.1329 C.3       1 <0>        -0.0156
     16 C15         1.2686   -2.7017   -3.1081 C.3       1 <0>        -0.0696
     17 C16         1.3290   -4.2436   -2.8590 C.3       1 <0>        -0.1059
     18 C17        -0.1219   -4.6685   -2.9974 C.2       1 <0>        -0.0667
     19 C18        -0.7990   -3.8194   -3.6882 C.2       1 <0>         0.0185
     20 N1         -2.1549   -3.9069   -4.0023 N.pl3     1 <0>        -0.3589
     21 C19        -3.1974   -3.6343   -3.1676 C.cat     1 <0>         0.3712
     22 N2         -4.3261   -3.8196   -3.7877 N.pl3     1 <0>        -0.4864
     23 C20        -4.0876   -4.2236   -5.0623 C.ar      1 <0>         0.0440
     24 C21        -2.6922   -4.2807   -5.2207 C.ar      1 <0>         0.0828
     25 C22        -2.1485   -4.6631   -6.4382 C.ar      1 <0>        -0.0878
     26 C23        -2.9801   -4.9835   -7.4905 C.ar      1 <0>        -0.0659
     27 C24        -4.3582   -4.9256   -7.3405 C.ar      1 <0>        -0.0772
     28 C25        -4.9155   -4.5551   -6.1376 C.ar      1 <0>        -0.0762
     29 C26         0.7269   -3.1033   -5.4867 C.3       1 <0>        -0.1568
     30 O1         -1.5353    1.6297    1.2002 O.3       1 <0>        -0.5550
     31 H2          0.1418    1.7261   -1.6502 H         1 <0>         0.0330
     32 H3         -1.5212    1.5871   -1.0312 H         1 <0>         0.0598
     33 H4         -0.1734    1.8750    0.0953 H         1 <0>         0.0815
     34 H5         -2.4365   -0.1571   -0.7095 H         1 <0>         0.0677
     35 H6         -1.6891   -1.7693   -0.6585 H         1 <0>         0.0481
     36 H7         -2.8415   -0.7726    1.5000 H         1 <0>         0.0656
     37 H8         -1.3200   -1.6780    1.6373 H         1 <0>         0.0726
     38 H9          0.8757    1.2945    1.7915 H         1 <0>         0.0810
     39 H10         0.7893   -0.2973    2.5967 H         1 <0>         0.0790
     40 H11         2.3973   -1.2354    1.1867 H         1 <0>         0.1043
     41 H12         2.8410   -1.3709   -1.4655 H         1 <0>         0.0761
     42 H13         2.4582   -2.8928   -0.6311 H         1 <0>         0.0729
     43 H14         0.1156   -2.7361   -1.2853 H         1 <0>         0.0725
     44 H15         0.9270   -0.0377   -2.4373 H         1 <0>         0.0804
     45 H16        -1.7250   -1.5768   -2.4749 H         1 <0>         0.0506
     46 H17        -1.5139    0.1020   -3.0362 H         1 <0>         0.0734
     47 H18        -1.4109   -1.4774   -4.9334 H         1 <0>         0.0553
     48 H19         0.1497   -0.6624   -4.6979 H         1 <0>         0.0814
     49 H20         2.2009   -2.2782   -3.4815 H         1 <0>         0.1139
     50 H21         1.9473   -4.7319   -3.6123 H         1 <0>         0.1032
     51 H22         1.6996   -4.4579   -1.8565 H         1 <0>         0.0974
     52 H23        -0.5486   -5.5605   -2.5630 H         1 <0>         0.1381
     53 H24        -3.1007   -3.3122   -2.1413 H         1 <0>         0.2602
     54 H25        -1.0766   -4.7095   -6.5618 H         1 <0>         0.1518
     55 H26        -2.5558   -5.2811   -8.4380 H         1 <0>         0.1571
     56 H27        -4.9987   -5.1786   -8.1724 H         1 <0>         0.1578
     57 H28        -5.9891   -4.5114   -6.0285 H         1 <0>         0.1542
     58 H29         1.4621   -2.3555   -5.7843 H         1 <0>         0.0757
     59 H30         1.2108   -4.0766   -5.4060 H         1 <0>         0.0657
     60 H31        -0.0649   -3.1520   -6.2342 H         1 <0>         0.0575
     61 H32        -1.1312    2.4414    1.5360 H         1 <0>         0.3777
     62 H33        -5.2050   -3.6893   -3.3985 H         1 <0>         0.4643
@<TRIPOS>BOND
     1    1    2 1
     2    1   31 1
     3    1   32 1
     4    1   33 1
     5    2    8 1
     6    2   12 1
     7    2    3 1
     8    3    4 1
     9    3   34 1
    10    3   35 1
    11    4    5 1
    12    4   36 1
    13    4   37 1
    14    5    6 1
    15    5    7 1
    16    5   30 1
    17    7    8 1
    18    7   38 1
    19    7   39 1
    20    8    9 2
    21    9   10 1
    22    9   40 1
    23   10   11 1
    24   10   41 1
    25   10   42 1
    26   11   16 1
    27   11   12 1
    28   11   43 1
    29   12   13 1
    30   12   44 1
    31   13   14 1
    32   13   45 1
    33   13   46 1
    34   14   15 1
    35   14   47 1
    36   14   48 1
    37   15   19 1
    38   15   16 1
    39   15   29 1
    40   16   17 1
    41   16   49 1
    42   17   18 1
    43   17   50 1
    44   17   51 1
    45   18   19 2
    46   18   52 1
    47   19   20 1
    48   20   24 1
    49   20   21 1
    50   21   22 2
    51   21   53 1
    52   22   23 1
    53   22   62 1
    54   23   28 ar
    55   23   24 ar
    56   24   25 ar
    57   25   26 ar
    58   25   54 1
    59   26   27 ar
    60   26   55 1
    61   27   28 ar
    62   27   56 1
    63   28   57 1
    64   29   58 1
    65   29   59 1
    66   29   60 1
    67   30   61 1
@<TRIPOS>MOLECULE
CHEMBL75474__14
   61    66     0     0     0
SMALL
USER_CHARGES

@<TRIPOS>ATOM
      1 C1         -0.3098    2.1635   -0.8665 C.3       1 <0>        -0.1470
      2 C2         -0.3777    0.6541   -0.6096 C.3       1 <0>        -0.0115
      3 C3         -1.8284    0.2021   -0.6860 C.3       1 <0>        -0.1004
      4 C4         -2.4003   -0.0543    0.7037 C.3       1 <0>        -0.1083
      5 C5         -2.0440    1.0311    1.7077 C.3       1 <0>         0.1135
      6 H1         -2.5191    0.7921    2.6689 H         1 <0>         0.0496
      7 C6         -0.5298    1.1159    1.9187 C.3       1 <0>        -0.1212
      8 C7          0.1483    0.3786    0.7775 C.2       1 <0>        -0.0985
      9 C8          1.1153   -0.4434    1.0511 C.2       1 <0>        -0.1632
     10 C9          1.8257   -1.2595    0.0010 C.3       1 <0>        -0.0781
     11 C10         0.8504   -1.4305   -1.1646 C.3       1 <0>        -0.0682
     12 C11         0.4856   -0.0292   -1.6714 C.3       1 <0>        -0.0713
     13 C12        -0.2280   -0.1087   -3.0100 C.3       1 <0>        -0.1079
     14 C13         0.6325   -0.7616   -4.1045 C.3       1 <0>        -0.1034
     15 C14         1.7933   -1.5085   -3.5071 C.3       1 <0>        -0.0189
     16 C15         1.3241   -2.3076   -2.2672 C.3       1 <0>        -0.0669
     17 C16         2.6002   -3.1444   -2.0655 C.3       1 <0>        -0.0848
     18 C17         2.8721   -3.5514   -3.5183 C.2       1 <0>        -0.1317
     19 C18         2.3908   -2.6210   -4.3426 C.2       1 <0>         0.0602
     20 N1          2.4233   -2.6489   -5.7365 N.pl3     1 <0>        -0.4342
     21 C19         1.3709   -2.9027   -6.5648 C.2       1 <0>         0.2712
     22 N2          1.7565   -2.8479   -7.8062 N.2       1 <0>        -0.4918
     23 C20         3.0816   -2.5554   -7.8618 C.ar      1 <0>         0.0451
     24 C21         3.5279   -2.4184   -6.5361 C.ar      1 <0>         0.0530
     25 C22         4.8564   -2.1113   -6.2808 C.ar      1 <0>        -0.1081
     26 C23         5.7344   -1.9387   -7.3300 C.ar      1 <0>        -0.1009
     27 C24         5.2983   -2.0696   -8.6406 C.ar      1 <0>        -0.1276
     28 C25         3.9854   -2.3809   -8.9128 C.ar      1 <0>        -0.0645
     29 C26         2.9513   -0.5572   -3.2027 C.3       1 <0>        -0.1483
     30 O1         -2.5480    2.2932    1.2651 O.3       1 <0>        -0.5625
     31 H2          0.7242    2.4992   -0.7880 H         1 <0>         0.0469
     32 H3         -0.6870    2.3792   -1.8662 H         1 <0>         0.0543
     33 H4         -0.9184    2.6855   -0.1281 H         1 <0>         0.0744
     34 H5         -2.4220    0.9698   -1.1862 H         1 <0>         0.0686
     35 H6         -1.8933   -0.7223   -1.2661 H         1 <0>         0.0655
     36 H7         -3.4911   -0.1198    0.6262 H         1 <0>         0.0652
     37 H8         -2.0320   -1.0164    1.0689 H         1 <0>         0.0723
     38 H9         -0.2060    2.1554    1.9473 H         1 <0>         0.0811
     39 H10        -0.2661    0.6358    2.8674 H         1 <0>         0.0717
     40 H11         1.4279   -0.5497    2.0758 H         1 <0>         0.1032
     41 H12         2.7172   -0.7313   -0.3255 H         1 <0>         0.0743
     42 H13         2.0906   -2.2306    0.4123 H         1 <0>         0.0739
     43 H14        -0.0773   -1.8773   -0.7438 H         1 <0>         0.0715
     44 H15         1.3803    0.5878   -1.7572 H         1 <0>         0.0801
     45 H16        -1.1514   -0.6904   -2.8999 H         1 <0>         0.0655
     46 H17        -0.5112    0.8982   -3.3390 H         1 <0>         0.0649
     47 H18         0.0110   -1.4532   -4.6894 H         1 <0>         0.0606
     48 H19         1.0043    0.0131   -4.7876 H         1 <0>         0.0608
     49 H20         0.5045   -2.9985   -2.5663 H         1 <0>         0.0802
     50 H21         3.4156   -2.5758   -1.6429 H         1 <0>         0.0942
     51 H22         2.3859   -4.0282   -1.4601 H         1 <0>         0.0789
     52 H23         3.3761   -4.4543   -3.8222 H         1 <0>         0.1321
     53 H24         0.3643   -3.1185   -6.2383 H         1 <0>         0.2110
     54 H25         5.2021   -2.0073   -5.2629 H         1 <0>         0.1196
     55 H26         6.7685   -1.6997   -7.1302 H         1 <0>         0.1302
     56 H27         5.9958   -1.9316   -9.4536 H         1 <0>         0.1308
     57 H28         3.6529   -2.4802   -9.9355 H         1 <0>         0.1304
     58 H29         2.6688    0.1103   -2.3886 H         1 <0>         0.0750
     59 H30         3.8287   -1.1345   -2.9112 H         1 <0>         0.0577
     60 H31         3.1819    0.0306   -4.0912 H         1 <0>         0.0557
     61 H32        -2.3526    3.0267    1.8641 H         1 <0>         0.3759
@<TRIPOS>BOND
     1    1    2 1
     2    1   31 1
     3    1   32 1
     4    1   33 1
     5    2    8 1
     6    2   12 1
     7    2    3 1
     8    3    4 1
     9    3   34 1
    10    3   35 1
    11    4    5 1
    12    4   36 1
    13    4   37 1
    14    5    6 1
    15    5    7 1
    16    5   30 1
    17    7    8 1
    18    7   38 1
    19    7   39 1
    20    8    9 2
    21    9   10 1
    22    9   40 1
    23   10   11 1
    24   10   41 1
    25   10   42 1
    26   11   16 1
    27   11   12 1
    28   11   43 1
    29   12   13 1
    30   12   44 1
    31   13   14 1
    32   13   45 1
    33   13   46 1
    34   14   15 1
    35   14   47 1
    36   14   48 1
    37   15   19 1
    38   15   16 1
    39   15   29 1
    40   16   17 1
    41   16   49 1
    42   17   18 1
    43   17   50 1
    44   17   51 1
    45   18   19 2
    46   18   52 1
    47   19   20 1
    48   20   24 1
    49   20   21 1
    50   21   22 2
    51   21   53 1
    52   22   23 1
    53   23   28 ar
    54   23   24 ar
    55   24   25 ar
    56   25   26 ar
    57   25   54 1
    58   26   27 ar
    59   26   55 1
    60   27   28 ar
    61   27   56 1
    62   28   57 1
    63   29   58 1
    64   29   59 1
    65   29   60 1
    66   30   61 1
@<TRIPOS>MOLECULE
CHEMBL75474__15
   62    67     0     0     0
SMALL
USER_CHARGES

@<TRIPOS>ATOM
      1 C1         -0.3098    2.1635   -0.8665 C.3       1 <0>        -0.1486
      2 C2         -0.3777    0.6541   -0.6096 C.3       1 <0>        -0.0116
      3 C3         -1.8284    0.2021   -0.6860 C.3       1 <0>        -0.0995
      4 C4         -2.4003   -0.0543    0.7037 C.3       1 <0>        -0.1092
      5 C5         -2.0440    1.0311    1.7077 C.3       1 <0>         0.1122
      6 H1         -2.5191    0.7921    2.6689 H         1 <0>         0.0523
      7 C6         -0.5298    1.1159    1.9187 C.3       1 <0>        -0.1235
      8 C7          0.1483    0.3786    0.7775 C.2       1 <0>        -0.0949
      9 C8          1.1153   -0.4434    1.0511 C.2       1 <0>        -0.1672
     10 C9          1.8257   -1.2595    0.0010 C.3       1 <0>        -0.0776
     11 C10         0.8504   -1.4305   -1.1646 C.3       1 <0>        -0.0739
     12 C11         0.4856   -0.0292   -1.6714 C.3       1 <0>        -0.0720
     13 C12        -0.2280   -0.1087   -3.0100 C.3       1 <0>        -0.1108
     14 C13         0.6325   -0.7616   -4.1045 C.3       1 <0>        -0.1054
     15 C14         1.7933   -1.5085   -3.5071 C.3       1 <0>        -0.0129
     16 C15         1.3241   -2.3076   -2.2672 C.3       1 <0>        -0.0628
     17 C16         2.6002   -3.1444   -2.0655 C.3       1 <0>        -0.0963
     18 C17         2.8721   -3.5514   -3.5183 C.2       1 <0>        -0.0621
     19 C18         2.3908   -2.6210   -4.3426 C.2       1 <0>        -0.0053
     20 N1          2.4233   -2.6489   -5.7365 N.pl3     1 <0>        -0.3586
     21 C19         1.3709   -2.9027   -6.5648 C.cat     1 <0>         0.3743
     22 N2          1.7565   -2.8479   -7.8062 N.pl3     1 <0>        -0.4885
     23 C20         3.0816   -2.5554   -7.8618 C.ar      1 <0>         0.0436
     24 C21         3.5279   -2.4184   -6.5361 C.ar      1 <0>         0.0783
     25 C22         4.8564   -2.1113   -6.2808 C.ar      1 <0>        -0.0843
     26 C23         5.7344   -1.9387   -7.3300 C.ar      1 <0>        -0.0663
     27 C24         5.2983   -2.0696   -8.6406 C.ar      1 <0>        -0.0776
     28 C25         3.9854   -2.3809   -8.9128 C.ar      1 <0>        -0.0767
     29 C26         2.9513   -0.5572   -3.2027 C.3       1 <0>        -0.1558
     30 O1         -2.5480    2.2932    1.2651 O.3       1 <0>        -0.5634
     31 H2          0.7242    2.4992   -0.7880 H         1 <0>         0.0479
     32 H3         -0.6870    2.3792   -1.8662 H         1 <0>         0.0537
     33 H4         -0.9184    2.6855   -0.1281 H         1 <0>         0.0778
     34 H5         -2.4220    0.9698   -1.1862 H         1 <0>         0.0697
     35 H6         -1.8933   -0.7223   -1.2661 H         1 <0>         0.0630
     36 H7         -3.4911   -0.1198    0.6262 H         1 <0>         0.0672
     37 H8         -2.0320   -1.0164    1.0689 H         1 <0>         0.0725
     38 H9         -0.2060    2.1554    1.9473 H         1 <0>         0.0831
     39 H10        -0.2661    0.6358    2.8674 H         1 <0>         0.0742
     40 H11         1.4279   -0.5497    2.0758 H         1 <0>         0.1064
     41 H12         2.7172   -0.7313   -0.3255 H         1 <0>         0.0743
     42 H13         2.0906   -2.2306    0.4123 H         1 <0>         0.0756
     43 H14        -0.0773   -1.8773   -0.7438 H         1 <0>         0.0781
     44 H15         1.3803    0.5878   -1.7572 H         1 <0>         0.0816
     45 H16        -1.1514   -0.6904   -2.8999 H         1 <0>         0.0705
     46 H17        -0.5112    0.8982   -3.3390 H         1 <0>         0.0706
     47 H18         0.0110   -1.4532   -4.6894 H         1 <0>         0.0553
     48 H19         1.0043    0.0131   -4.7876 H         1 <0>         0.0631
     49 H20         0.5045   -2.9985   -2.5663 H         1 <0>         0.0850
     50 H21         3.4156   -2.5758   -1.6429 H         1 <0>         0.1090
     51 H22         2.3859   -4.0282   -1.4601 H         1 <0>         0.0942
     52 H23         3.3761   -4.4543   -3.8222 H         1 <0>         0.1442
     53 H24         0.3643   -3.1185   -6.2383 H         1 <0>         0.2631
     54 H25         5.2021   -2.0073   -5.2629 H         1 <0>         0.1488
     55 H26         6.7685   -1.6997   -7.1302 H         1 <0>         0.1568
     56 H27         5.9958   -1.9316   -9.4536 H         1 <0>         0.1575
     57 H28         3.6529   -2.4802   -9.9355 H         1 <0>         0.1539
     58 H29         2.6688    0.1103   -2.3886 H         1 <0>         0.0852
     59 H30         3.8287   -1.1345   -2.9112 H         1 <0>         0.0620
     60 H31         3.1819    0.0306   -4.0912 H         1 <0>         0.0576
     61 H32        -2.3526    3.0267    1.8641 H         1 <0>         0.3785
     62 H33         1.1842   -2.9941   -8.5757 H         1 <0>         0.4642
@<TRIPOS>BOND
     1    1    2 1
     2    1   31 1
     3    1   32 1
     4    1   33 1
     5    2    8 1
     6    2   12 1
     7    2    3 1
     8    3    4 1
     9    3   34 1
    10    3   35 1
    11    4    5 1
    12    4   36 1
    13    4   37 1
    14    5    6 1
    15    5    7 1
    16    5   30 1
    17    7    8 1
    18    7   38 1
    19    7   39 1
    20    8    9 2
    21    9   10 1
    22    9   40 1
    23   10   11 1
    24   10   41 1
    25   10   42 1
    26   11   16 1
    27   11   12 1
    28   11   43 1
    29   12   13 1
    30   12   44 1
    31   13   14 1
    32   13   45 1
    33   13   46 1
    34   14   15 1
    35   14   47 1
    36   14   48 1
    37   15   19 1
    38   15   16 1
    39   15   29 1
    40   16   17 1
    41   16   49 1
    42   17   18 1
    43   17   50 1
    44   17   51 1
    45   18   19 2
    46   18   52 1
    47   19   20 1
    48   20   24 1
    49   20   21 1
    50   21   22 2
    51   21   53 1
    52   22   23 1
    53   22   62 1
    54   23   28 ar
    55   23   24 ar
    56   24   25 ar
    57   25   26 ar
    58   25   54 1
    59   26   27 ar
    60   26   55 1
    61   27   28 ar
    62   27   56 1
    63   28   57 1
    64   29   58 1
    65   29   59 1
    66   29   60 1
    67   30   61 1
@<TRIPOS>MOLECULE
CHEMBL1209972
   57    61     0     0     0
SMALL
USER_CHARGES

@<TRIPOS>ATOM
      1 C1          1.0126    0.5416    0.2118 C.3       1 <0>        -0.1410
      2 C2          0.4589   -0.8758    0.3705 C.3       1 <0>         0.1072
      3 C3         -1.0746   -0.9067    0.2562 C.3       1 <0>         0.0943
      4 N1         -1.5105   -2.3063    0.3982 N.am      1 <0>        -0.6307
      5 C4         -0.9306   -3.1055    1.4908 C.3       1 <0>         0.1159
      6 C5          0.5896   -2.8719    1.4932 C.3       1 <0>         0.1052
      7 O1          0.8123   -1.4528    1.6470 O.3       1 <0>        -0.3394
      8 C6          1.1278   -3.2046    0.0839 C.3       1 <0>        -0.1388
      9 H1          0.5765   -4.0092   -0.4027 H         1 <0>         0.1534
     10 C7          1.0487   -1.8454   -0.6776 C.3       1 <0>        -0.1424
     11 H2          0.4492   -1.9056   -1.5859 H         1 <0>         0.1466
     12 C8          2.4942   -1.4808   -0.9306 C.2       1 <0>         0.5432
     13 O2          2.8747   -0.4840   -1.5059 O.2       1 <0>        -0.4531
     14 N2          3.2878   -2.4292   -0.4199 N.am      1 <0>        -0.5406
     15 C9          2.6127   -3.4756    0.1716 C.2       1 <0>         0.5441
     16 O3          3.1177   -4.4456    0.6948 O.2       1 <0>        -0.4364
     17 C10         4.6833   -2.3702   -0.4973 C.ar      1 <0>         0.1404
     18 C11         5.4405   -2.3099    0.6674 C.ar      1 <0>        -0.0682
     19 C12         6.8145   -2.2513    0.5953 C.ar      1 <0>        -0.0548
     20 C13         7.4478   -2.2529   -0.6507 C.ar      1 <0>         0.0392
     21 C14         6.6835   -2.3140   -1.8188 C.ar      1 <0>        -0.1295
     22 C15         5.3098   -2.3777   -1.7383 C.ar      1 <0>        -0.0544
     23 C16         7.3613   -2.3156   -3.1647 C.3       1 <0>         0.5072
     24 F1          6.3945   -2.3820   -4.1737 F         1 <0>        -0.1680
     25 F2          8.1089   -1.1422   -3.3117 F         1 <0>        -0.1670
     26 F3          8.2098   -3.4239   -3.2583 F         1 <0>        -0.1675
     27 C17         8.8763   -2.1915   -0.7299 C.1       1 <0>         0.2267
     28 N3         10.0095   -2.1429   -0.7928 N.1       1 <0>        -0.3629
     29 C18         1.2876   -3.6813    2.5880 C.3       1 <0>        -0.1398
     30 C19        -2.4144   -2.8401   -0.4470 C.2       1 <0>         0.7118
     31 O4         -2.6491   -4.0326   -0.4123 O.2       1 <0>        -0.5595
     32 N4         -3.0581   -2.0521   -1.3308 N.am      1 <0>        -0.6810
     33 C20        -4.1234   -2.5652   -2.0795 C.ar      1 <0>         0.1578
     34 C21        -4.2036   -3.9284   -2.3316 C.ar      1 <0>        -0.1378
     35 C22        -5.2565   -4.4318   -3.0704 C.ar      1 <0>        -0.0997
     36 C23        -6.2300   -3.5798   -3.5588 C.ar      1 <0>        -0.1387
     37 C24        -6.1526   -2.2218   -3.3098 C.ar      1 <0>        -0.0986
     38 C25        -5.1054   -1.7129   -2.5669 C.ar      1 <0>        -0.1522
     39 H3          2.0978    0.5211    0.3117 H         1 <0>         0.0759
     40 H4          0.7455    0.9280   -0.7718 H         1 <0>         0.0882
     41 H5          0.5889    1.1856    0.9825 H         1 <0>         0.0795
     42 H6         -1.5158   -0.3008    1.0476 H         1 <0>         0.0959
     43 H7         -1.3797   -0.5223   -0.7171 H         1 <0>         0.0929
     44 H8         -1.3537   -2.7887    2.4440 H         1 <0>         0.0905
     45 H9         -1.1409   -4.1623    1.3263 H         1 <0>         0.1141
     46 H10         4.9505   -2.3087    1.6298 H         1 <0>         0.1513
     47 H11         7.4019   -2.2037    1.5004 H         1 <0>         0.1598
     48 H12         4.7185   -2.4291   -2.6406 H         1 <0>         0.1547
     49 H13         1.1155   -4.7443    2.4197 H         1 <0>         0.0902
     50 H14         2.3582   -3.4782    2.5634 H         1 <0>         0.0724
     51 H15         0.8863   -3.3979    3.5611 H         1 <0>         0.0809
     52 H16        -2.7831   -1.1293   -1.4480 H         1 <0>         0.4061
     53 H17        -3.4434   -4.5943   -1.9507 H         1 <0>         0.1591
     54 H18        -5.3193   -5.4918   -3.2671 H         1 <0>         0.1252
     55 H19        -7.0522   -3.9758   -4.1362 H         1 <0>         0.1225
     56 H20        -6.9144   -1.5589   -3.6930 H         1 <0>         0.1261
     57 H21        -5.0481   -0.6528   -2.3687 H         1 <0>         0.1236
@<TRIPOS>BOND
     1    1    2 1
     2    1   39 1
     3    1   40 1
     4    1   41 1
     5    2    7 1
     6    2   10 1
     7    2    3 1
     8    3    4 1
     9    3   42 1
    10    3   43 1
    11    4    5 1
    12    4   30 am
    13    5    6 1
    14    5   44 1
    15    5   45 1
    16    6    7 1
    17    6    8 1
    18    6   29 1
    19    8    9 1
    20    8   15 1
    21    8   10 1
    22   10   11 1
    23   10   12 1
    24   12   13 2
    25   12   14 am
    26   14   15 am
    27   14   17 1
    28   15   16 2
    29   17   22 ar
    30   17   18 ar
    31   18   19 ar
    32   18   46 1
    33   19   20 ar
    34   19   47 1
    35   20   21 ar
    36   20   27 1
    37   21   22 ar
    38   21   23 1
    39   22   48 1
    40   23   24 1
    41   23   25 1
    42   23   26 1
    43   27   28 3
    44   29   49 1
    45   29   50 1
    46   29   51 1
    47   30   31 2
    48   30   32 am
    49   32   33 1
    50   32   52 1
    51   33   38 ar
    52   33   34 ar
    53   34   35 ar
    54   34   53 1
    55   35   36 ar
    56   35   54 1
    57   36   37 ar
    58   36   55 1
    59   37   38 ar
    60   37   56 1
    61   38   57 1
@<TRIPOS>MOLECULE
CHEMBL1215620
   43    45     0     0     0
SMALL
USER_CHARGES

@<TRIPOS>ATOM
      1 C1          0.3514    1.4776    0.2632 C.3       1 <0>        -0.1310
      2 C2          0.1825   -0.0135    0.1252 C.2       1 <0>         0.2090
      3 C3         -1.0511   -0.5402    0.0879 C.2       1 <0>        -0.1446
      4 C4         -1.2678   -2.0197   -0.0576 C.3       1 <0>         0.0798
      5 C5         -0.0046   -2.7752    0.2432 C.2       1 <0>        -0.1733
      6 C6          1.1906   -2.1593    0.2746 C.2       1 <0>         0.1610
      7 N1          1.2921   -0.8158    0.0336 N.pl3     1 <0>        -0.6281
      8 C7          2.4326   -2.9590    0.5729 C.3       1 <0>         0.1651
      9 N2          3.0790   -3.3441   -0.6841 N.pl3     1 <0>        -0.3854
     10 C8          4.3613   -3.0983   -1.0252 C.2       1 <0>         0.0464
     11 C9          4.5655   -3.6129   -2.2599 C.2       1 <0>        -0.2630
     12 C10         3.3670   -4.1930   -2.6881 C.2       1 <0>         0.0454
     13 N3          2.4769   -4.0378   -1.7417 N.2       1 <0>        -0.2622
     14 C11        -0.0738   -4.1636    0.4992 C.2       1 <0>         0.5146
     15 O1         -0.1669   -4.9490   -0.4257 O.2       1 <0>        -0.4555
     16 O2         -0.0365   -4.6182    1.7694 O.3       1 <0>        -0.3575
     17 C12        -0.1108   -6.0333    1.9544 C.3       1 <0>         0.0318
     18 C13        -1.7020   -2.3211   -1.4688 C.ar      1 <0>        -0.0801
     19 C14        -0.8756   -1.9995   -2.5294 C.ar      1 <0>        -0.0452
     20 C15        -1.2725   -2.2753   -3.8240 C.ar      1 <0>        -0.1451
     21 C16        -2.4987   -2.8743   -4.0595 C.ar      1 <0>         0.1171
     22 C17        -3.3259   -3.1967   -2.9976 C.ar      1 <0>        -0.1457
     23 C18        -2.9247   -2.9247   -1.7020 C.ar      1 <0>         0.0028
     24 Cl1        -3.9588   -3.3342   -0.3690 Cl        1 <0>        -0.0527
     25 F1         -2.8875   -3.1433   -5.3251 F         1 <0>        -0.1315
     26 C19        -2.1861    0.3270    0.1893 C.1       1 <0>         0.2629
     27 N4         -3.0865    1.0150    0.2699 N.1       1 <0>        -0.4155
     28 H1          1.4132    1.7239    0.2711 H         1 <0>         0.0824
     29 H2         -0.1313    1.9773   -0.5768 H         1 <0>         0.0930
     30 H3         -0.1056    1.8103    1.1952 H         1 <0>         0.0954
     31 H4         -2.0490   -2.3375    0.6330 H         1 <0>         0.1028
     32 H5          2.1505   -0.4284   -0.1986 H         1 <0>         0.4218
     33 H6          3.1202   -2.3549    1.1649 H         1 <0>         0.1217
     34 H7          2.1624   -3.8549    1.1319 H         1 <0>         0.1110
     35 H8          5.0933   -2.5829   -0.4211 H         1 <0>         0.1741
     36 H9          5.4904   -3.5808   -2.8167 H         1 <0>         0.1487
     37 H10         3.2055   -4.6880   -3.6343 H         1 <0>         0.1830
     38 H11        -0.0707   -6.2631    3.0191 H         1 <0>         0.1027
     39 H12        -1.0466   -6.4055    1.5374 H         1 <0>         0.0626
     40 H13         0.7280   -6.5105    1.4478 H         1 <0>         0.0600
     41 H14         0.0806   -1.5320   -2.3461 H         1 <0>         0.1328
     42 H15        -0.6266   -2.0234   -4.6521 H         1 <0>         0.1414
     43 H16        -4.2826   -3.6635   -3.1803 H         1 <0>         0.1472
@<TRIPOS>BOND
     1    1    2 1
     2    1   28 1
     3    1   29 1
     4    1   30 1
     5    2    7 1
     6    2    3 2
     7    3    4 1
     8    3   26 1
     9    4    5 1
    10    4   18 1
    11    4   31 1
    12    5    6 2
    13    5   14 1
    14    6    7 1
    15    6    8 1
    16    7   32 1
    17    8    9 1
    18    8   33 1
    19    8   34 1
    20    9   13 1
    21    9   10 1
    22   10   11 2
    23   10   35 1
    24   11   12 1
    25   11   36 1
    26   12   13 2
    27   12   37 1
    28   14   15 2
    29   14   16 1
    30   16   17 1
    31   17   38 1
    32   17   39 1
    33   17   40 1
    34   18   23 ar
    35   18   19 ar
    36   19   20 ar
    37   19   41 1
    38   20   21 ar
    39   20   42 1
    40   21   22 ar
    41   21   25 1
    42   22   23 ar
    43   22   43 1
    44   23   24 1
    45   26   27 3
@<TRIPOS>MOLECULE
CHEMBL1215620__1
   43    45     0     0     0
SMALL
USER_CHARGES

@<TRIPOS>ATOM
      1 C1          0.4083    1.4795    0.1287 C.3       1 <0>        -0.1308
      2 C2          0.2100   -0.0129    0.0616 C.2       1 <0>         0.2096
      3 C3         -1.0307   -0.5202    0.1246 C.2       1 <0>        -0.1430
      4 C4         -1.2756   -2.0014    0.0704 C.3       1 <0>         0.0796
      5 C5         -0.0619   -2.7237   -0.4417 C.2       1 <0>        -0.1742
      6 C6          1.1435   -2.1288   -0.4818 C.2       1 <0>         0.1620
      7 N1          1.3001   -0.8363   -0.0689 N.pl3     1 <0>        -0.6274
      8 C7          2.3354   -2.8954   -0.9943 C.3       1 <0>         0.1649
      9 N2          2.5462   -2.5816   -2.4097 N.pl3     1 <0>        -0.3836
     10 C8          3.6903   -2.1237   -2.9595 C.2       1 <0>         0.0482
     11 C9          3.4743   -1.9605   -4.2853 C.2       1 <0>        -0.2640
     12 C10         2.1529   -2.3314   -4.5550 C.2       1 <0>         0.0467
     13 N3          1.5974   -2.7097   -3.4324 N.2       1 <0>        -0.2664
     14 C11        -0.1897   -4.0579   -0.8906 C.2       1 <0>         0.5177
     15 O1         -0.6420   -4.2870   -1.9969 O.2       1 <0>        -0.4632
     16 O2          0.1899   -5.0778   -0.0924 O.3       1 <0>        -0.3532
     17 C12         0.0328   -6.4003   -0.6105 C.3       1 <0>         0.0314
     18 C13        -1.6032   -2.5009    1.4540 C.ar      1 <0>        -0.0861
     19 C14        -0.6904   -2.3419    2.4800 C.ar      1 <0>        -0.0551
     20 C15        -0.9895   -2.7995    3.7491 C.ar      1 <0>        -0.1457
     21 C16        -2.2042   -3.4179    3.9938 C.ar      1 <0>         0.1168
     22 C17        -3.1183   -3.5768    2.9666 C.ar      1 <0>        -0.1444
     23 C18        -2.8194   -3.1133    1.6979 C.ar      1 <0>        -0.0015
     24 Cl1        -3.9676   -3.3067    0.4103 Cl        1 <0>        -0.0466
     25 F1         -2.4967   -3.8662    5.2342 F         1 <0>        -0.1305
     26 C19        -2.1457    0.3699    0.2467 C.1       1 <0>         0.2627
     27 N4         -3.0303    1.0760    0.3435 N.1       1 <0>        -0.4160
     28 H1          1.4717    1.7083    0.0586 H         1 <0>         0.0820
     29 H2         -0.1207    1.9539   -0.6978 H         1 <0>         0.0937
     30 H3          0.0173    1.8558    1.0741 H         1 <0>         0.0937
     31 H4         -2.1182   -2.2017   -0.5914 H         1 <0>         0.1056
     32 H5          2.1866   -0.5007    0.1369 H         1 <0>         0.4220
     33 H6          3.2208   -2.6143   -0.4241 H         1 <0>         0.1203
     34 H7          2.1553   -3.9646   -0.8821 H         1 <0>         0.1115
     35 H8          4.6129   -1.9230   -2.4352 H         1 <0>         0.1744
     36 H9          4.1947   -1.6059   -5.0076 H         1 <0>         0.1493
     37 H10         1.6752   -2.3134   -5.5234 H         1 <0>         0.1839
     38 H11         0.3748   -7.1235    0.1298 H         1 <0>         0.1028
     39 H12        -1.0186   -6.5799   -0.8351 H         1 <0>         0.0623
     40 H13         0.6222   -6.5061   -1.5212 H         1 <0>         0.0602
     41 H14         0.2572   -1.8600    2.2894 H         1 <0>         0.1377
     42 H15        -0.2758   -2.6752    4.5501 H         1 <0>         0.1442
     43 H16        -4.0658   -4.0592    3.1563 H         1 <0>         0.1485
@<TRIPOS>BOND
     1    1    2 1
     2    1   28 1
     3    1   29 1
     4    1   30 1
     5    2    7 1
     6    2    3 2
     7    3    4 1
     8    3   26 1
     9    4    5 1
    10    4   18 1
    11    4   31 1
    12    5    6 2
    13    5   14 1
    14    6    7 1
    15    6    8 1
    16    7   32 1
    17    8    9 1
    18    8   33 1
    19    8   34 1
    20    9   13 1
    21    9   10 1
    22   10   11 2
    23   10   35 1
    24   11   12 1
    25   11   36 1
    26   12   13 2
    27   12   37 1
    28   14   15 2
    29   14   16 1
    30   16   17 1
    31   17   38 1
    32   17   39 1
    33   17   40 1
    34   18   23 ar
    35   18   19 ar
    36   19   20 ar
    37   19   41 1
    38   20   21 ar
    39   20   42 1
    40   21   22 ar
    41   21   25 1
    42   22   23 ar
    43   22   43 1
    44   23   24 1
    45   26   27 3
@<TRIPOS>MOLECULE
CHEMBL489788
   43    46     0     0     0
SMALL
USER_CHARGES

@<TRIPOS>ATOM
      1 C1         -1.3942    2.3574   -0.0369 C.3       1 <0>        -0.1908
      2 C2         -1.0201    0.8770    0.0601 C.3       1 <0>         0.2554
      3 C3         -2.2674    0.0643   -0.0999 C.ar      1 <0>        -0.1362
      4 C4         -2.5534   -0.3610   -1.3922 C.ar      1 <0>        -0.0452
      5 C5         -3.6828   -1.1252   -1.6657 C.ar      1 <0>        -0.0446
      6 C6         -4.5421   -1.4689   -0.6187 C.ar      1 <0>        -0.0828
      7 C7         -4.2585   -1.0468    0.6535 C.ar      1 <0>        -0.1554
      8 C8         -3.1184   -0.2719    0.9350 C.ar      1 <0>         0.1942
      9 N1         -2.9672    0.0866    2.2553 N.am      1 <0>        -0.6463
     10 C9         -2.0185    0.6466    2.9572 C.2       1 <0>         0.4969
     11 O1         -2.1423    0.6195    4.1634 O.2       1 <0>        -0.5248
     12 C10        -0.7990    1.3150    2.4222 C.3       1 <0>         0.0497
     13 O2         -0.3296    0.6757    1.2572 O.3       1 <0>        -0.3462
     14 C11        -3.9706   -1.5674   -3.0452 C.2       1 <0>         0.0967
     15 C12        -3.4654   -1.0017   -4.1958 C.2       1 <0>        -0.1769
     16 C13        -3.9813   -1.7126   -5.2786 C.2       1 <0>        -0.1063
     17 C14        -4.7967   -2.7052   -4.7721 C.2       1 <0>         0.0555
     18 N2         -4.7786   -2.6112   -3.3987 N.pl3     1 <0>        -0.4152
     19 C15        -5.5065   -3.4815   -2.4719 C.3       1 <0>         0.0551
     20 C16        -5.5278   -3.6675   -5.5404 C.1       1 <0>         0.2768
     21 N3         -6.1078   -4.4308   -6.1498 N.1       1 <0>        -0.4035
     22 C17        -0.0941    0.5482   -1.0825 C.2       1 <0>        -0.0195
     23 C18         0.9083   -0.3481   -1.0498 C.2       1 <0>        -0.1665
     24 C19         1.5115   -0.3349   -2.3284 C.2       1 <0>        -0.2131
     25 C20         0.8416    0.5687   -3.0660 C.2       1 <0>        -0.0307
     26 O3         -0.1335    1.0963   -2.3080 O.3       1 <0>        -0.1702
     27 H1         -0.4879    2.9628   -0.0223 H         1 <0>         0.0808
     28 H2         -1.9350    2.5353   -0.9664 H         1 <0>         0.0858
     29 H3         -2.0261    2.6286    0.8088 H         1 <0>         0.0690
     30 H4         -1.8864   -0.0935   -2.1983 H         1 <0>         0.1426
     31 H5         -5.4231   -2.0632   -0.8110 H         1 <0>         0.1371
     32 H6         -4.9258   -1.3151    1.4592 H         1 <0>         0.1359
     33 H7         -3.7483   -0.1262    2.7896 H         1 <0>         0.4025
     34 H8         -1.0352    2.3531    2.1882 H         1 <0>         0.1020
     35 H9         -0.0173    1.2910    3.1815 H         1 <0>         0.1489
     36 H10        -2.7914   -0.1595   -4.2491 H         1 <0>         0.1517
     37 H11        -3.7803   -1.5215   -6.3224 H         1 <0>         0.1545
     38 H12        -6.4505   -3.0109   -2.1971 H         1 <0>         0.0861
     39 H13        -5.7045   -4.4394   -2.9527 H         1 <0>         0.0887
     40 H14        -4.9061   -3.6416   -1.5764 H         1 <0>         0.0979
     41 H15         1.1974   -0.9600   -0.2081 H         1 <0>         0.1511
     42 H16         2.3496   -0.9349   -2.6509 H         1 <0>         0.1512
     43 H17         1.0499    0.8238   -4.0946 H         1 <0>         0.2081
@<TRIPOS>BOND
     1    1    2 1
     2    1   27 1
     3    1   28 1
     4    1   29 1
     5    2   13 1
     6    2    3 1
     7    2   22 1
     8    3    8 ar
     9    3    4 ar
    10    4    5 ar
    11    4   30 1
    12    5    6 ar
    13    5   14 1
    14    6    7 ar
    15    6   31 1
    16    7    8 ar
    17    7   32 1
    18    8    9 1
    19    9   10 am
    20    9   33 1
    21   10   11 2
    22   10   12 1
    23   12   13 1
    24   12   34 1
    25   12   35 1
    26   14   18 1
    27   14   15 2
    28   15   16 1
    29   15   36 1
    30   16   17 2
    31   16   37 1
    32   17   18 1
    33   17   20 1
    34   18   19 1
    35   19   38 1
    36   19   39 1
    37   19   40 1
    38   20   21 3
    39   22   26 1
    40   22   23 2
    41   23   24 1
    42   23   41 1
    43   24   25 2
    44   24   42 1
    45   25   26 1
    46   25   43 1
@<TRIPOS>MOLECULE
CHEMBL489788__1
   43    46     0     0     0
SMALL
USER_CHARGES

@<TRIPOS>ATOM
      1 C1         -0.3595    1.3887   -0.0851 C.3       1 <0>        -0.1460
      2 C2         -0.2506   -0.1370   -0.1228 C.3       1 <0>         0.2570
      3 C3          0.2573   -0.5399   -1.4725 C.ar      1 <0>        -0.1378
      4 C4          0.0329    0.3675   -2.5015 C.ar      1 <0>        -0.0511
      5 C5          0.4605    0.1058   -3.7988 C.ar      1 <0>        -0.0465
      6 C6          1.1282   -1.0921   -4.0668 C.ar      1 <0>        -0.0794
      7 C7          1.3471   -1.9848   -3.0508 C.ar      1 <0>        -0.1567
      8 C8          0.9139   -1.7261   -1.7374 C.ar      1 <0>         0.2017
      9 N1          1.1944   -2.7167   -0.8240 N.am      1 <0>        -0.6461
     10 C9          1.1156   -2.8237    0.4755 C.2       1 <0>         0.4994
     11 O1          1.6571   -3.7853    0.9787 O.2       1 <0>        -0.5252
     12 C10         0.4265   -1.8806    1.4007 C.3       1 <0>         0.0486
     13 O2          0.5365   -0.5482    0.9550 O.3       1 <0>        -0.3447
     14 C11         0.2117    1.0813   -4.8795 C.2       1 <0>         0.0964
     15 C12        -0.7451    2.0731   -4.8667 C.2       1 <0>        -0.1785
     16 C13        -0.6487    2.7694   -6.0707 C.2       1 <0>        -0.1062
     17 C14         0.3685    2.1911   -6.8038 C.2       1 <0>         0.0562
     18 N2          0.8947    1.1585   -6.0605 N.pl3     1 <0>        -0.4151
     19 C15         1.9988    0.2865   -6.4688 C.3       1 <0>         0.0550
     20 C16         0.8039    2.5979   -8.1059 C.1       1 <0>         0.2760
     21 N3          1.1493    2.9206   -9.1389 N.1       1 <0>        -0.4029
     22 C17        -1.6321   -0.7133    0.0516 C.2       1 <0>        -0.0660
     23 C18        -2.4540   -1.1003   -0.9404 C.2       1 <0>        -0.1783
     24 C19        -3.6374   -1.5754   -0.3299 C.2       1 <0>        -0.2138
     25 C20        -3.4679   -1.4503    0.9986 C.2       1 <0>        -0.0323
     26 O3         -2.2492   -0.9329    1.2241 O.3       1 <0>        -0.1668
     27 H1          0.6102    1.8281   -0.3188 H         1 <0>         0.0820
     28 H2         -1.0944    1.7187   -0.8193 H         1 <0>         0.0861
     29 H3         -0.6720    1.7061    0.9098 H         1 <0>         0.0789
     30 H4         -0.4831    1.2923   -2.2898 H         1 <0>         0.1482
     31 H5          1.4695   -1.3125   -5.0675 H         1 <0>         0.1370
     32 H6          1.8636   -2.9093   -3.2632 H         1 <0>         0.1356
     33 H7          1.5287   -3.5248   -1.2435 H         1 <0>         0.4017
     34 H8         -0.6279   -2.1494    1.4632 H         1 <0>         0.0994
     35 H9          0.8734   -1.9631    2.3915 H         1 <0>         0.1453
     36 H10        -1.4435    2.2746   -4.0679 H         1 <0>         0.1527
     37 H11        -1.2584    3.6075   -6.3746 H         1 <0>         0.1546
     38 H12         1.5971   -0.6278   -6.9057 H         1 <0>         0.0859
     39 H13         2.6148    0.8013   -7.2060 H         1 <0>         0.0888
     40 H14         2.6057    0.0371   -5.5985 H         1 <0>         0.0981
     41 H15        -2.2494   -1.0561   -1.9999 H         1 <0>         0.1503
     42 H16        -4.5102   -1.9639   -0.8336 H         1 <0>         0.1517
     43 H17        -4.1881   -1.7233    1.7557 H         1 <0>         0.2066
@<TRIPOS>BOND
     1    1    2 1
     2    1   27 1
     3    1   28 1
     4    1   29 1
     5    2   13 1
     6    2    3 1
     7    2   22 1
     8    3    8 ar
     9    3    4 ar
    10    4    5 ar
    11    4   30 1
    12    5    6 ar
    13    5   14 1
    14    6    7 ar
    15    6   31 1
    16    7    8 ar
    17    7   32 1
    18    8    9 1
    19    9   10 am
    20    9   33 1
    21   10   11 2
    22   10   12 1
    23   12   13 1
    24   12   34 1
    25   12   35 1
    26   14   18 1
    27   14   15 2
    28   15   16 1
    29   15   36 1
    30   16   17 2
    31   16   37 1
    32   17   18 1
    33   17   20 1
    34   18   19 1
    35   19   38 1
    36   19   39 1
    37   19   40 1
    38   20   21 3
    39   22   26 1
    40   22   23 2
    41   23   24 1
    42   23   41 1
    43   24   25 2
    44   24   42 1
    45   25   26 1
    46   25   43 1
@<TRIPOS>MOLECULE
CHEMBL185880
   40    44     0     0     0
SMALL
USER_CHARGES

@<TRIPOS>ATOM
      1 C1          0.0221    1.2850   -0.7868 C.ar      1 <0>        -0.0955
      2 C2          1.2074    2.0179   -0.7974 C.ar      1 <0>        -0.0846
      3 C3          2.4045    1.4175   -0.5554 C.ar      1 <0>        -0.1149
      4 C4          2.4497    0.0376   -0.2904 C.ar      1 <0>        -0.0078
      5 C5          1.2441   -0.7065   -0.2799 C.ar      1 <0>        -0.0380
      6 C6          0.0280   -0.0527   -0.5340 C.ar      1 <0>        -0.0955
      7 C7          1.2891   -2.0911   -0.0141 C.ar      1 <0>         0.1961
      8 C8          2.5034   -2.6940    0.2303 C.ar      1 <0>        -0.1015
      9 C9          3.6814   -1.9529    0.2178 C.ar      1 <0>        -0.0279
     10 C10         3.6676   -0.6153   -0.0358 C.ar      1 <0>        -0.0211
     11 N1          4.9345    0.1504   -0.0440 N.pl3     1 <0>         0.0302
     12 O1          5.9384   -0.3467   -0.4988 O.2       1 <0>        -0.1420
     13 O2          4.9654    1.2728    0.4042 O.3       1 <0>        -0.1446
     14 N2          0.1107   -2.8454    0.0018 N.am      1 <0>        -0.5574
     15 C11        -0.4154   -3.4702   -1.0845 C.2       1 <0>         0.5313
     16 O3          0.0812   -3.6042   -2.1824 O.2       1 <0>        -0.4426
     17 C12        -1.7512   -3.9560   -0.6100 C.3       1 <0>         0.0507
     18 H1         -2.5485   -3.2688   -0.8933 H         1 <0>         0.1357
     19 C13        -2.1064   -5.4115   -0.9746 C.3       1 <0>        -0.0873
     20 H2         -2.3950   -5.5925   -2.0100 H         1 <0>         0.1310
     21 C14        -0.9942   -6.3362   -0.4057 C.3       1 <0>        -0.1231
     22 C15        -1.1763   -6.3182    1.1315 C.3       1 <0>        -0.1474
     23 C16        -2.2741   -5.2105    1.3410 C.3       1 <0>         0.1797
     24 H3         -2.7359   -5.1472    2.3263 H         1 <0>         0.1339
     25 C17        -3.2312   -5.5807    0.1249 C.3       1 <0>        -0.1299
     26 N3         -1.5578   -3.9959    0.8618 N.am      1 <0>        -0.6393
     27 C18        -0.6476   -3.0514    1.0988 C.2       1 <0>         0.7416
     28 O4         -0.5212   -2.4585    2.1521 O.2       1 <0>        -0.5047
     29 H4         -0.9152    1.7864   -0.9775 H         1 <0>         0.1378
     30 H5          1.1755    3.0781   -1.0010 H         1 <0>         0.1406
     31 H6          3.3151    1.9980   -0.5672 H         1 <0>         0.1523
     32 H7         -0.8982   -0.6081   -0.5286 H         1 <0>         0.1271
     33 H8          2.5417   -3.7539    0.4342 H         1 <0>         0.1523
     34 H9          4.6218   -2.4469    0.4129 H         1 <0>         0.1606
     35 H10        -1.1166   -7.3500   -0.7870 H         1 <0>         0.0847
     36 H11        -0.0107   -5.9495   -0.6725 H         1 <0>         0.0629
     37 H12        -1.5302   -7.2850    1.4896 H         1 <0>         0.0884
     38 H13        -0.2466   -6.0387    1.6270 H         1 <0>         0.0709
     39 H14        -4.0469   -4.8700   -0.0085 H         1 <0>         0.0908
     40 H15        -3.5930   -6.6069    0.1886 H         1 <0>         0.1061
@<TRIPOS>BOND
     1    1    6 ar
     2    1    2 ar
     3    1   29 1
     4    2    3 ar
     5    2   30 1
     6    3    4 ar
     7    3   31 1
     8    4   10 ar
     9    4    5 ar
    10    5    6 ar
    11    5    7 ar
    12    6   32 1
    13    7    8 ar
    14    7   14 1
    15    8    9 ar
    16    8   33 1
    17    9   10 ar
    18    9   34 1
    19   10   11 1
    20   11   12 2
    21   11   13 1
    22   14   27 am
    23   14   15 am
    24   15   16 2
    25   15   17 1
    26   17   18 1
    27   17   26 1
    28   17   19 1
    29   19   20 1
    30   19   25 1
    31   19   21 1
    32   21   22 1
    33   21   35 1
    34   21   36 1
    35   22   23 1
    36   22   37 1
    37   22   38 1
    38   23   24 1
    39   23   25 1
    40   23   26 1
    41   25   39 1
    42   25   40 1
    43   26   27 am
    44   27   28 2
@<TRIPOS>MOLECULE
CHEMBL556431
   62    66     0     0     0
SMALL
USER_CHARGES

@<TRIPOS>ATOM
      1 C1          0.0789    0.8050    0.7173 C.3       1 <0>        -0.1515
      2 C2          0.1289   -0.6372    0.0866 C.3       1 <0>        -0.0295
      3 C3         -1.1679   -1.2170   -0.1684 C.3       1 <0>        -0.1060
      4 C4         -1.7681   -1.8496    1.1387 C.3       1 <0>        -0.0972
      5 C5         -0.9827   -1.5943    2.3380 C.3       1 <0>        -0.0748
      6 H1         -0.9850   -0.4219    2.4605 H         1 <0>         0.0692
      7 C6          0.4886   -1.9018    2.1876 C.3       1 <0>        -0.0704
      8 H2          0.4906   -3.0988    2.2457 H         1 <0>         0.0543
      9 C7          1.0526   -1.5557    0.8318 C.3       1 <0>        -0.0555
     10 H3          1.1593   -2.4960    0.2925 H         1 <0>         0.0830
     11 C8          2.3833   -0.8844    0.8472 C.3       1 <0>        -0.0858
     12 C9          2.4139   -0.2850   -0.6100 C.2       1 <0>        -0.1394
     13 C10         3.5285    0.2091   -1.1826 C.2       1 <0>        -0.1245
     14 C11         4.7623    0.3664   -0.3839 C.ar      1 <0>         0.0159
     15 C12         6.0035    0.0699   -0.9474 C.ar      1 <0>        -0.1572
     16 C13         7.1541    0.2192   -0.1963 C.ar      1 <0>         0.1356
     17 C14         7.0763    0.6624    1.1138 C.ar      1 <0>        -0.1958
     18 C15         5.8464    0.9583    1.6783 C.ar      1 <0>         0.1356
     19 C16         4.6900    0.8175    0.9343 C.ar      1 <0>        -0.1617
     20 F1          5.7774    1.3897    2.9567 F         1 <0>        -0.1286
     21 F2          8.3568   -0.0681   -0.7406 F         1 <0>        -0.1289
     22 C17         0.9926   -0.3841   -1.1681 C.3       1 <0>         0.1369
     23 H4          0.7991    0.5451   -1.6108 H         1 <0>         0.0760
     24 O1          0.9140   -1.5442   -2.0394 O.3       1 <0>        -0.5504
     25 C18         1.2898   -1.4546    3.3326 C.3       1 <0>        -0.0976
     26 C19         0.7022   -2.0128    4.6249 C.3       1 <0>        -0.1308
     27 C20        -0.7536   -1.6520    4.8211 C.3       1 <0>         0.1685
     28 H5         -1.1563   -2.1348    5.7001 H         1 <0>         0.0732
     29 C21        -1.5929   -2.1131    3.5770 C.3       1 <0>        -0.0278
     30 C22        -3.0026   -1.6175    3.7108 C.2       1 <0>        -0.0916
     31 C23        -3.2673   -0.4418    4.1284 C.2       1 <0>        -0.1899
     32 C24        -2.1352    0.4514    4.6647 C.2       1 <0>         0.5540
     33 O2         -2.2522    1.6054    4.8139 O.2       1 <0>        -0.4996
     34 N1         -0.9616   -0.1854    4.9940 N.am      1 <0>        -0.6394
     35 C25         0.0695    0.6584    5.5635 C.3       1 <0>         0.0784
     36 C26        -1.6239   -3.6418    3.5307 C.3       1 <0>        -0.1457
     37 H6          1.0489    1.2877    0.5977 H         1 <0>         0.0596
     38 H7         -0.6856    1.3959    0.2128 H         1 <0>         0.0592
     39 H8         -0.1612    0.7297    1.7779 H         1 <0>         0.0667
     40 H9         -1.8664   -0.3705   -0.5582 H         1 <0>         0.0529
     41 H10        -1.1141   -1.9066   -1.0229 H         1 <0>         0.0848
     42 H11        -2.7689   -1.4947    1.2842 H         1 <0>         0.0680
     43 H12        -1.7873   -2.9651    0.8807 H         1 <0>         0.0606
     44 H13         2.4994   -0.1009    1.5976 H         1 <0>         0.0854
     45 H14         3.2249   -1.5629    0.9190 H         1 <0>         0.0748
     46 H15         3.5207    0.4903   -2.2253 H         1 <0>         0.1309
     47 H16         6.0653   -0.2761   -1.9686 H         1 <0>         0.1446
     48 H17         7.9778    0.7773    1.6974 H         1 <0>         0.1492
     49 H18         3.7319    1.0524    1.3740 H         1 <0>         0.1459
     50 H19         1.4319   -1.4618   -2.8518 H         1 <0>         0.3753
     51 H20         2.3474   -1.7604    3.2794 H         1 <0>         0.0748
     52 H21         1.2536   -0.3360    3.3844 H         1 <0>         0.0633
     53 H22         0.7344   -3.1085    4.6652 H         1 <0>         0.0787
     54 H23         1.2646   -1.6615    5.5741 H         1 <0>         0.0742
     55 H24        -3.8759   -2.2635    3.3499 H         1 <0>         0.1326
     56 H25        -4.2502   -0.0164    4.2045 H         1 <0>         0.1378
     57 H26         0.7116    1.0351    4.7673 H         1 <0>         0.0487
     58 H27        -0.3935    1.4966    6.0841 H         1 <0>         0.0733
     59 H28         0.6661    0.0782    6.2675 H         1 <0>         0.0646
     60 H29        -0.6069   -4.0232    3.4400 H         1 <0>         0.0661
     61 H30        -2.0749   -4.0239    4.4465 H         1 <0>         0.0596
     62 H31        -2.2120   -3.9674    2.6727 H         1 <0>         0.0678
@<TRIPOS>BOND
     1    1    2 1
     2    1   37 1
     3    1   38 1
     4    1   39 1
     5    2    9 1
     6    2   22 1
     7    2    3 1
     8    3    4 1
     9    3   40 1
    10    3   41 1
    11    4    5 1
    12    4   42 1
    13    4   43 1
    14    5    6 1
    15    5   29 1
    16    5    7 1
    17    7    8 1
    18    7    9 1
    19    7   25 1
    20    9   10 1
    21    9   11 1
    22   11   12 1
    23   11   44 1
    24   11   45 1
    25   12   13 2
    26   12   22 1
    27   13   14 1
    28   13   46 1
    29   14   19 ar
    30   14   15 ar
    31   15   16 ar
    32   15   47 1
    33   16   17 ar
    34   16   21 1
    35   17   18 ar
    36   17   48 1
    37   18   19 ar
    38   18   20 1
    39   19   49 1
    40   22   23 1
    41   22   24 1
    42   24   50 1
    43   25   26 1
    44   25   51 1
    45   25   52 1
    46   26   27 1
    47   26   53 1
    48   26   54 1
    49   27   28 1
    50   27   34 1
    51   27   29 1
    52   29   30 1
    53   29   36 1
    54   30   31 2
    55   30   55 1
    56   31   32 1
    57   31   56 1
    58   32   33 2
    59   32   34 am
    60   34   35 1
    61   35   57 1
    62   35   58 1
    63   35   59 1
    64   36   60 1
    65   36   61 1
    66   36   62 1
@<TRIPOS>MOLECULE
CHEMBL1210908
   50    53     0     0     0
SMALL
USER_CHARGES

@<TRIPOS>ATOM
      1 C1         -0.0198    1.5826    0.5156 C.3       1 <0>        -0.1697
      2 C2         -0.0270    0.0834    0.2098 C.3       1 <0>         0.1179
      3 C3          0.8071   -0.6550    1.2586 C.3       1 <0>        -0.1693
      4 N1         -1.4042   -0.4149    0.2419 N.am      1 <0>        -0.5605
      5 C4         -2.1368   -0.3045    1.3708 C.2       1 <0>         0.5127
      6 O1         -1.6549    0.1780    2.3730 O.2       1 <0>        -0.4527
      7 C5         -3.5713   -0.7930    1.3646 C.3       1 <0>         0.0983
      8 C6         -3.5402   -2.3372    1.4596 C.3       1 <0>        -0.1496
      9 H1         -2.7387   -2.7101    2.0973 H         1 <0>         0.1641
     10 C7         -3.4093   -2.7906   -0.0224 C.3       1 <0>        -0.1442
     11 H2         -2.5416   -3.4247   -0.2047 H         1 <0>         0.1643
     12 C8         -4.7222   -3.4911   -0.2892 C.2       1 <0>         0.5496
     13 O2         -5.0410   -4.0048   -1.3399 O.2       1 <0>        -0.4371
     14 N2         -5.4774   -3.4566    0.8146 N.am      1 <0>        -0.5314
     15 C9         -4.9072   -2.8323    1.8745 C.2       1 <0>         0.5493
     16 O3         -5.4009   -2.6874    2.9721 O.2       1 <0>        -0.4282
     17 C10        -6.7539   -4.0255    0.8758 C.ar      1 <0>         0.1329
     18 C11        -6.9020   -5.4062    0.8025 C.ar      1 <0>        -0.0640
     19 C12        -8.1570   -5.9700    0.8619 C.ar      1 <0>        -0.0559
     20 C13        -9.2827   -5.1526    0.9966 C.ar      1 <0>         0.0447
     21 C14        -9.1297   -3.7657    1.0704 C.ar      1 <0>        -0.1304
     22 C15        -7.8706   -3.2095    1.0155 C.ar      1 <0>        -0.0501
     23 C16       -10.3402   -2.8797    1.2152 C.3       1 <0>         0.5070
     24 F1         -9.9352   -1.5417    1.2672 F         1 <0>        -0.1671
     25 F2        -11.1894   -3.0677    0.1194 F         1 <0>        -0.1670
     26 F3        -11.0197   -3.2075    2.3934 F         1 <0>        -0.1668
     27 C17       -10.5895   -5.7349    1.0584 C.1       1 <0>         0.2252
     28 N3        -11.6261   -6.1969    1.1073 N.1       1 <0>        -0.3602
     29 C18        -3.3618   -1.4573   -0.8065 C.3       1 <0>         0.0964
     30 C19        -1.9443   -0.9800   -0.8591 C.2       1 <0>         0.5156
     31 O4         -1.2888   -1.1069   -1.8709 O.2       1 <0>        -0.4589
     32 O5         -4.0991   -0.5312    0.0421 O.3       1 <0>        -0.3197
     33 C20        -3.9744   -1.5799   -2.2032 C.3       1 <0>        -0.1284
     34 C21        -4.4107   -0.1443    2.4671 C.3       1 <0>        -0.1284
     35 H3          1.0050    1.9533    0.4918 H         1 <0>         0.0785
     36 H4         -0.6140    2.1086   -0.2316 H         1 <0>         0.0592
     37 H5         -0.4451    1.7537    1.5045 H         1 <0>         0.0775
     38 H6          0.3984   -0.0877   -0.7790 H         1 <0>         0.1124
     39 H7          0.3817   -0.4838    2.2475 H         1 <0>         0.0790
     40 H8          0.8020   -1.7230    1.0408 H         1 <0>         0.0584
     41 H9          1.8318   -0.2842    1.2348 H         1 <0>         0.0786
     42 H10        -6.0317   -6.0372    0.6984 H         1 <0>         0.1528
     43 H11        -8.2713   -7.0424    0.8042 H         1 <0>         0.1608
     44 H12        -7.7513   -2.1379    1.0766 H         1 <0>         0.1571
     45 H13        -5.0180   -1.8826   -2.1169 H         1 <0>         0.0862
     46 H14        -3.9161   -0.6173   -2.7113 H         1 <0>         0.0856
     47 H15        -3.4255   -2.3271   -2.7764 H         1 <0>         0.1017
     48 H16        -4.4115    0.9376    2.3341 H         1 <0>         0.0867
     49 H17        -5.4332   -0.5178    2.4127 H         1 <0>         0.0850
     50 H18        -3.9853   -0.3904    3.4401 H         1 <0>         0.1023
@<TRIPOS>BOND
     1    1    2 1
     2    1   35 1
     3    1   36 1
     4    1   37 1
     5    2    3 1
     6    2    4 1
     7    2   38 1
     8    3   39 1
     9    3   40 1
    10    3   41 1
    11    4   30 am
    12    4    5 am
    13    5    6 2
    14    5    7 1
    15    7   32 1
    16    7    8 1
    17    7   34 1
    18    8    9 1
    19    8   15 1
    20    8   10 1
    21   10   11 1
    22   10   12 1
    23   10   29 1
    24   12   13 2
    25   12   14 am
    26   14   15 am
    27   14   17 1
    28   15   16 2
    29   17   22 ar
    30   17   18 ar
    31   18   19 ar
    32   18   42 1
    33   19   20 ar
    34   19   43 1
    35   20   21 ar
    36   20   27 1
    37   21   22 ar
    38   21   23 1
    39   22   44 1
    40   23   24 1
    41   23   25 1
    42   23   26 1
    43   27   28 3
    44   29   30 1
    45   29   32 1
    46   29   33 1
    47   30   31 2
    48   33   45 1
    49   33   46 1
    50   33   47 1
    51   34   48 1
    52   34   49 1
    53   34   50 1
@<TRIPOS>MOLECULE
CHEMBL556229
   64    68     0     0     0
SMALL
USER_CHARGES

@<TRIPOS>ATOM
      1 C1         -0.0187    1.5258    0.0104 C.3       1 <0>        -0.1281
      2 C2          0.0021   -0.0041    0.0020 C.3       1 <0>        -0.0409
      3 C3          0.5939   -0.5666   -1.2926 C.3       1 <0>        -0.1095
      4 C4          2.1017   -0.3336   -1.3394 C.3       1 <0>        -0.1143
      5 C5          2.7533   -1.0842   -0.1732 C.3       1 <0>        -0.0619
      6 H1          2.4991   -2.1425   -0.2316 H         1 <0>         0.0733
      7 C6          2.2273   -0.5022    1.1369 C.3       1 <0>        -0.0699
      8 H2          2.5010    0.5517    1.1866 H         1 <0>         0.0725
      9 C7          0.7337   -0.5853    1.2253 C.3       1 <0>        -0.0691
     10 H3          0.4074   -0.0482    2.1159 H         1 <0>         0.0735
     11 C8          0.2398   -2.0342    1.3297 C.3       1 <0>        -0.1115
     12 C9         -1.1466   -2.0579    0.6544 C.3       1 <0>        -0.1160
     13 H4         -1.1389   -2.7458   -0.1910 H         1 <0>         0.0778
     14 C10        -1.4194   -0.6190    0.1641 C.3       1 <0>         0.1087
     15 H5         -1.9414   -0.6335   -0.7927 H         1 <0>         0.0590
     16 O1         -2.1725    0.1080    1.1368 O.3       1 <0>        -0.5552
     17 C11        -2.2151   -2.4806    1.6646 C.3       1 <0>        -0.0778
     18 C12        -1.9857   -3.9143    2.0681 C.ar      1 <0>        -0.0480
     19 C13        -2.5798   -4.9373    1.3523 C.ar      1 <0>        -0.1300
     20 C14        -2.3703   -6.2528    1.7213 C.ar      1 <0>        -0.0862
     21 C15        -1.5668   -6.5471    2.8067 C.ar      1 <0>        -0.1590
     22 C16        -0.9714   -5.5237    3.5242 C.ar      1 <0>         0.1019
     23 C17        -1.1771   -4.2064    3.1499 C.ar      1 <0>        -0.1507
     24 F1         -0.1862   -5.8102    4.5856 F         1 <0>        -0.1395
     25 C18         2.8769   -1.2345    2.3144 C.3       1 <0>        -0.1210
     26 C19         4.3927   -1.0387    2.2541 C.3       1 <0>        -0.1272
     27 C20         4.9358   -1.5945    0.9417 C.3       1 <0>         0.1578
     28 H6          6.0069   -1.3981    0.8938 H         1 <0>         0.0708
     29 C21         4.2734   -0.9152   -0.2565 C.3       1 <0>        -0.0474
     30 C22         4.7611   -1.5626   -1.5319 C.2       1 <0>        -0.0822
     31 C23         4.9652   -2.8794   -1.5529 C.2       1 <0>        -0.1962
     32 C24         4.6988   -3.6664   -0.3351 C.2       1 <0>         0.5471
     33 O2          4.4722   -4.8589   -0.4108 O.2       1 <0>        -0.5344
     34 N1          4.7180   -3.0384    0.8664 N.am      1 <0>        -0.6091
     35 C25         4.5016   -3.8152    2.0895 C.3       1 <0>         0.0810
     36 C26         4.6267    0.5735   -0.2508 C.3       1 <0>        -0.1432
     37 H7          1.0039    1.9031    0.0027 H         1 <0>         0.0543
     38 H8         -0.5459    1.8868   -0.8726 H         1 <0>         0.0526
     39 H9         -0.5289    1.8773    0.9072 H         1 <0>         0.0660
     40 H10         0.3939   -1.6369   -1.3439 H         1 <0>         0.0640
     41 H11         0.1273   -0.0732   -2.1452 H         1 <0>         0.0632
     42 H12         2.5001   -0.7073   -2.2827 H         1 <0>         0.0646
     43 H13         2.3096    0.7326   -1.2495 H         1 <0>         0.0714
     44 H14         0.9237   -2.7029    0.8072 H         1 <0>         0.0634
     45 H15         0.1531   -2.3271    2.3761 H         1 <0>         0.0677
     46 H16        -3.0665   -0.2329    1.2773 H         1 <0>         0.3746
     47 H17        -2.1556   -1.8413    2.5454 H         1 <0>         0.0855
     48 H18        -3.2018   -2.3841    1.2116 H         1 <0>         0.0737
     49 H19        -3.2084   -4.7082    0.5045 H         1 <0>         0.1273
     50 H20        -2.8349   -7.0510    1.1614 H         1 <0>         0.1327
     51 H21        -1.4038   -7.5750    3.0952 H         1 <0>         0.1344
     52 H22        -0.7096   -3.4074    3.7062 H         1 <0>         0.1337
     53 H23         2.4943   -0.8291    3.2511 H         1 <0>         0.0666
     54 H24         2.6444   -2.2977    2.2549 H         1 <0>         0.0721
     55 H25         4.6234    0.0245    2.3201 H         1 <0>         0.0832
     56 H26         4.8588   -1.5616    3.0892 H         1 <0>         0.0752
     57 H27         4.9413   -0.9665   -2.4143 H         1 <0>         0.1321
     58 H28         5.3216   -3.3636   -2.4501 H         1 <0>         0.1439
     59 H29         3.4354   -3.8509    2.3134 H         1 <0>         0.0567
     60 H30         4.8772   -4.8285    1.9476 H         1 <0>         0.0748
     61 H31         5.0311   -3.3440    2.9176 H         1 <0>         0.0727
     62 H32         4.2619    1.0300    0.6693 H         1 <0>         0.0690
     63 H33         5.7088    0.6903   -0.3101 H         1 <0>         0.0607
     64 H34         4.1612    1.0606   -1.1076 H         1 <0>         0.0689
@<TRIPOS>BOND
     1    1    2 1
     2    1   37 1
     3    1   38 1
     4    1   39 1
     5    2    9 1
     6    2   14 1
     7    2    3 1
     8    3    4 1
     9    3   40 1
    10    3   41 1
    11    4    5 1
    12    4   42 1
    13    4   43 1
    14    5    6 1
    15    5   29 1
    16    5    7 1
    17    7    8 1
    18    7    9 1
    19    7   25 1
    20    9   10 1
    21    9   11 1
    22   11   12 1
    23   11   44 1
    24   11   45 1
    25   12   13 1
    26   12   14 1
    27   12   17 1
    28   14   15 1
    29   14   16 1
    30   16   46 1
    31   17   18 1
    32   17   47 1
    33   17   48 1
    34   18   23 ar
    35   18   19 ar
    36   19   20 ar
    37   19   49 1
    38   20   21 ar
    39   20   50 1
    40   21   22 ar
    41   21   51 1
    42   22   23 ar
    43   22   24 1
    44   23   52 1
    45   25   26 1
    46   25   53 1
    47   25   54 1
    48   26   27 1
    49   26   55 1
    50   26   56 1
    51   27   28 1
    52   27   34 1
    53   27   29 1
    54   29   30 1
    55   29   36 1
    56   30   31 2
    57   30   57 1
    58   31   32 1
    59   31   58 1
    60   32   33 2
    61   32   34 am
    62   34   35 1
    63   35   59 1
    64   35   60 1
    65   35   61 1
    66   36   62 1
    67   36   63 1
    68   36   64 1
@<TRIPOS>MOLECULE
CHEMBL343306
   34    36     0     0     0
SMALL
USER_CHARGES

@<TRIPOS>ATOM
      1 C1         -0.0187    1.5258    0.0104 C.3       1 <0>        -0.1435
      2 C2          0.0021   -0.0041    0.0020 C.3       1 <0>         0.1662
      3 C3         -1.4115   -0.5287    0.0286 C.ar      1 <0>        -0.1574
      4 C4         -2.4384    0.1742   -0.5582 C.ar      1 <0>        -0.0547
      5 C5         -3.7362   -0.3358   -0.5205 C.ar      1 <0>        -0.0680
      6 C6         -3.9878   -1.5534    0.1104 C.ar      1 <0>        -0.0654
      7 C7         -2.9543   -2.2537    0.6976 C.ar      1 <0>        -0.1416
      8 C8         -1.6651   -1.7434    0.6595 C.ar      1 <0>         0.1704
      9 N1         -0.5989   -2.4311    1.2506 N.am      1 <0>        -0.6684
     10 C9          0.5630   -1.7822    1.4720 C.2       1 <0>         0.6621
     11 O1          1.5022   -2.3807    1.9582 O.2       1 <0>        -0.4992
     12 O2          0.6935   -0.4804    1.1602 O.3       1 <0>        -0.3307
     13 C10        -4.8479    0.4167   -1.1517 C.ar      1 <0>        -0.0369
     14 C11        -4.5971    1.6311   -1.7881 C.ar      1 <0>        -0.0801
     15 C12        -5.6337    2.3281   -2.3740 C.ar      1 <0>        -0.1344
     16 C13        -6.9230    1.8230   -2.3307 C.ar      1 <0>         0.1103
     17 C14        -7.1777    0.6158   -1.6984 C.ar      1 <0>        -0.0692
     18 C15        -6.1449   -0.0913   -1.1149 C.ar      1 <0>        -0.0773
     19 Cl1        -8.7956   -0.0116   -1.6471 Cl        1 <0>        -0.0425
     20 F1         -7.9349    2.5089   -2.9057 F         1 <0>        -0.1235
     21 C16         0.7122   -0.5002   -1.2592 C.3       1 <0>        -0.1723
     22 H1          1.0039    1.9031    0.0027 H         1 <0>         0.0797
     23 H2         -0.5459    1.8868   -0.8726 H         1 <0>         0.0866
     24 H3         -0.5289    1.8773    0.9072 H         1 <0>         0.0745
     25 H4         -2.2404    1.1170   -1.0465 H         1 <0>         0.1406
     26 H5         -4.9924   -1.9488    0.1391 H         1 <0>         0.1377
     27 H6         -3.1486   -3.1972    1.1858 H         1 <0>         0.1398
     28 H7         -0.6942   -3.3642    1.4980 H         1 <0>         0.4314
     29 H8         -3.5926    2.0262   -1.8224 H         1 <0>         0.1427
     30 H9         -5.4398    3.2693   -2.8670 H         1 <0>         0.1500
     31 H10        -6.3429   -1.0341   -0.6266 H         1 <0>         0.1470
     32 H11         1.7350   -0.1238   -1.2721 H         1 <0>         0.0803
     33 H12         0.7260   -1.5901   -1.2634 H         1 <0>         0.0612
     34 H13         0.1814   -0.1401   -2.1404 H         1 <0>         0.0847
@<TRIPOS>BOND
     1    1    2 1
     2    1   22 1
     3    1   23 1
     4    1   24 1
     5    2   12 1
     6    2    3 1
     7    2   21 1
     8    3    8 ar
     9    3    4 ar
    10    4    5 ar
    11    4   25 1
    12    5    6 ar
    13    5   13 1
    14    6    7 ar
    15    6   26 1
    16    7    8 ar
    17    7   27 1
    18    8    9 1
    19    9   10 am
    20    9   28 1
    21   10   11 2
    22   10   12 1
    23   13   18 ar
    24   13   14 ar
    25   14   15 ar
    26   14   29 1
    27   15   16 ar
    28   15   30 1
    29   16   17 ar
    30   16   20 1
    31   17   18 ar
    32   17   19 1
    33   18   31 1
    34   21   32 1
    35   21   33 1
    36   21   34 1
@<TRIPOS>MOLECULE
CHEMBL160386
   40    42     0     0     0
SMALL
USER_CHARGES

@<TRIPOS>ATOM
      1 C1         -0.0184    1.5028    0.0103 C.3       1 <0>        -0.1188
      2 C2          0.0021   -0.0041    0.0020 C.2       1 <0>        -0.0589
      3 C3          0.0057   -0.6651   -1.1486 C.2       1 <0>        -0.1735
      4 C4          0.0116   -2.1701   -1.1813 C.3       1 <0>         0.2116
      5 N1          0.6753   -2.6962    0.0180 N.pl3     1 <0>        -0.7323
      6 C5          0.3698   -2.1213    1.2494 C.ar      1 <0>         0.2776
      7 C6          0.0243   -0.7537    1.2746 C.ar      1 <0>        -0.1282
      8 C7         -0.2891   -0.1401    2.4742 C.ar      1 <0>        -0.0101
      9 C8         -0.2511   -0.8870    3.6573 C.ar      1 <0>        -0.1577
     10 C9         -0.5769   -0.2707    4.9433 C.2       1 <0>        -0.0702
     11 C10        -0.5243   -1.0373    6.0623 C.2       1 <0>        -0.1558
     12 C11        -0.1620   -2.3965    5.9756 C.2       1 <0>         0.5372
     13 O1         -0.1213   -3.0664    6.9933 O.2       1 <0>        -0.5210
     14 N2          0.1392   -2.9733    4.7995 N.am      1 <0>        -0.5172
     15 C12         0.1044   -2.2517    3.6248 C.ar      1 <0>         0.2390
     16 C13         0.4054   -2.8582    2.4146 C.ar      1 <0>        -0.2298
     17 C14         0.5103   -4.3901    4.7650 C.3       1 <0>         0.0583
     18 C15        -0.9631    1.1837    5.0240 C.3       1 <0>         0.5080
     19 F1         -1.2235    1.5238    6.3558 F         1 <0>        -0.1678
     20 F2          0.0851    1.9722    4.5377 F         1 <0>        -0.1671
     21 F3         -2.1096    1.4052    4.2534 F         1 <0>        -0.1672
     22 C16         0.7605   -2.6480   -2.4270 C.3       1 <0>        -0.1532
     23 C17        -1.4293   -2.6825   -1.2302 C.3       1 <0>        -0.1590
     24 H1          1.0042    1.8801    0.0026 H         1 <0>         0.0739
     25 H2         -0.5455    1.8639   -0.8728 H         1 <0>         0.0712
     26 H3         -0.5286    1.8543    0.9071 H         1 <0>         0.0676
     27 H4          0.0049   -0.1140   -2.0774 H         1 <0>         0.1271
     28 H5          1.3107   -3.4263   -0.0455 H         1 <0>         0.4068
     29 H6         -0.5600    0.9051    2.4976 H         1 <0>         0.1390
     30 H7         -0.7605   -0.6039    7.0229 H         1 <0>         0.1702
     31 H8          0.6780   -3.9028    2.3869 H         1 <0>         0.1407
     32 H9          0.4849   -4.7971    5.7758 H         1 <0>         0.1051
     33 H10        -0.1940   -4.9349    4.1362 H         1 <0>         0.0793
     34 H11         1.5159   -4.4925    4.3572 H         1 <0>         0.0791
     35 H12         1.7862   -2.2804   -2.3975 H         1 <0>         0.0648
     36 H13         0.7656   -3.7377   -2.4521 H         1 <0>         0.0648
     37 H14         0.2632   -2.2663   -3.3187 H         1 <0>         0.0770
     38 H15        -1.9205   -2.3007   -2.1253 H         1 <0>         0.0694
     39 H16        -1.4268   -3.7722   -1.2539 H         1 <0>         0.0617
     40 H17        -1.9671   -2.3395   -0.3463 H         1 <0>         0.0585
@<TRIPOS>BOND
     1    1    2 1
     2    1   24 1
     3    1   25 1
     4    1   26 1
     5    2    7 1
     6    2    3 2
     7    3    4 1
     8    3   27 1
     9    4    5 1
    10    4   22 1
    11    4   23 1
    12    5    6 1
    13    5   28 1
    14    6   16 ar
    15    6    7 ar
    16    7    8 ar
    17    8    9 ar
    18    8   29 1
    19    9   15 ar
    20    9   10 1
    21   10   11 2
    22   10   18 1
    23   11   12 1
    24   11   30 1
    25   12   13 2
    26   12   14 am
    27   14   15 1
    28   14   17 1
    29   15   16 ar
    30   16   31 1
    31   17   32 1
    32   17   33 1
    33   17   34 1
    34   18   19 1
    35   18   20 1
    36   18   21 1
    37   22   35 1
    38   22   36 1
    39   22   37 1
    40   23   38 1
    41   23   39 1
    42   23   40 1
@<TRIPOS>MOLECULE
CHEMBL268568
   39    41     0     0     0
SMALL
USER_CHARGES

@<TRIPOS>ATOM
      1 C1          1.1535   -0.2369    1.1301 C.3       1 <0>        -0.1579
      2 C2          0.2847    0.1411   -0.0712 C.3       1 <0>        -0.1255
      3 C3          1.0274   -0.1989   -1.3649 C.3       1 <0>        -0.0491
      4 C4          0.2051    0.2406   -2.5514 C.ar      1 <0>        -0.1276
      5 C5         -0.5863    1.3344   -2.4454 C.ar      1 <0>        -0.0039
      6 C6         -1.3636    1.7554   -3.5437 C.ar      1 <0>        -0.1811
      7 C7         -2.1890    2.8875   -3.4454 C.2       1 <0>         0.0531
      8 C8         -2.9325    3.2561   -4.5562 C.2       1 <0>        -0.2303
      9 C9         -2.8467    2.5137   -5.7175 C.2       1 <0>         0.4465
     10 O1         -3.5770    2.8886   -6.7866 O.3       1 <0>        -0.3656
     11 O2         -2.0630    1.4364   -5.8158 O.3       1 <0>        -0.1980
     12 C10        -1.3203    1.0365   -4.7633 C.ar      1 <0>         0.2294
     13 C11        -0.5134   -0.0745   -4.8662 C.ar      1 <0>        -0.2517
     14 C12         0.2624   -0.4876   -3.7635 C.ar      1 <0>         0.3593
     15 N1          1.0399   -1.5585   -3.8882 N.pl3     1 <0>        -0.6366
     16 C13         1.8874   -2.0396   -2.8013 C.3       1 <0>         0.0895
     17 C14         1.2418   -1.7142   -1.4519 C.3       1 <0>        -0.1092
     18 C15        -0.1054   -2.4307   -1.3406 C.3       1 <0>        -0.1576
     19 C16        -2.2649    3.6804   -2.1661 C.3       1 <0>         0.5059
     20 F1         -1.0003    4.1948   -1.8605 F         1 <0>        -0.1508
     21 F2         -3.1713    4.7343   -2.3238 F         1 <0>        -0.1500
     22 F3         -2.6936    2.8482   -1.1264 F         1 <0>        -0.1511
     23 H1          1.2719   -1.3199    1.1664 H         1 <0>         0.0607
     24 H2          2.1323    0.2325    1.0327 H         1 <0>         0.0606
     25 H3          0.6751    0.1071    2.0471 H         1 <0>         0.0649
     26 H4         -0.6513   -0.4161   -0.0324 H         1 <0>         0.0772
     27 H5          0.0726    1.2100   -0.0442 H         1 <0>         0.0699
     28 H6          1.9921    0.3084   -1.3770 H         1 <0>         0.1058
     29 H7         -0.6224    1.8854   -1.5172 H         1 <0>         0.1639
     30 H8         -3.5774    4.1214   -4.5132 H         1 <0>         0.2053
     31 H9         -0.4750   -0.6300   -5.7916 H         1 <0>         0.1691
     32 H10         1.0446   -2.0372   -4.7318 H         1 <0>         0.4235
     33 H11         2.0135   -3.1185   -2.8912 H         1 <0>         0.1111
     34 H12         2.8627   -1.5566   -2.8620 H         1 <0>         0.0969
     35 H13         1.8989   -2.0376   -0.6446 H         1 <0>         0.1155
     36 H14        -0.7559   -2.1098   -2.1542 H         1 <0>         0.0500
     37 H15         0.0498   -3.5078   -1.4027 H         1 <0>         0.0675
     38 H16        -0.5698   -2.1850   -0.3856 H         1 <0>         0.0753
     39 H17        -3.4628    2.3195   -7.5601 H         1 <0>         0.4454
@<TRIPOS>BOND
     1    1    2 1
     2    1   23 1
     3    1   24 1
     4    1   25 1
     5    2    3 1
     6    2   26 1
     7    2   27 1
     8    3   17 1
     9    3    4 1
    10    3   28 1
    11    4   14 ar
    12    4    5 ar
    13    5    6 ar
    14    5   29 1
    15    6   12 ar
    16    6    7 2
    17    7    8 1
    18    7   19 1
    19    8    9 2
    20    8   30 1
    21    9   10 1
    22    9   11 1
    23   10   39 1
    24   11   12 1
    25   12   13 ar
    26   13   14 ar
    27   13   31 1
    28   14   15 2
    29   15   16 1
    30   15   32 1
    31   16   17 1
    32   16   33 1
    33   16   34 1
    34   17   18 1
    35   17   35 1
    36   18   36 1
    37   18   37 1
    38   18   38 1
    39   19   20 1
    40   19   21 1
    41   19   22 1
@<TRIPOS>MOLECULE
CHEMBL268568__1
   39    41     0     0     0
SMALL
USER_CHARGES

@<TRIPOS>ATOM
      1 C1         -0.3182    1.7967    0.0828 C.3       1 <0>        -0.1621
      2 C2         -0.3458    0.2690    0.1615 C.3       1 <0>        -0.1213
      3 C3          0.4212   -0.3168   -1.0256 C.3       1 <0>        -0.0503
      4 C4         -0.3037    0.0102   -2.3081 C.ar      1 <0>        -0.1256
      5 C5         -0.0297    1.1699   -2.9515 C.ar      1 <0>         0.0009
      6 C6         -0.6956    1.4879   -4.1528 C.ar      1 <0>        -0.1820
      7 C7         -0.4190    2.6870   -4.8296 C.2       1 <0>         0.0533
      8 C8         -1.1025    2.9487   -6.0073 C.2       1 <0>        -0.2306
      9 C9         -2.0265    2.0388   -6.4819 C.2       1 <0>         0.4465
     10 O1         -2.6804    2.3113   -7.6287 O.3       1 <0>        -0.3656
     11 O2         -2.2931    0.8971   -5.8417 O.3       1 <0>        -0.1981
     12 C10        -1.6545    0.5960   -4.6924 C.ar      1 <0>         0.2294
     13 C11        -1.9301   -0.5814   -4.0339 C.ar      1 <0>        -0.2517
     14 C12        -1.2610   -0.8909   -2.8318 C.ar      1 <0>         0.3596
     15 N1         -1.5488   -2.0296   -2.2093 N.pl3     1 <0>        -0.6358
     16 C13        -0.9145   -2.4148   -0.9522 C.3       1 <0>         0.0878
     17 C14         0.5026   -1.8409   -0.8839 C.3       1 <0>        -0.1086
     18 C15         1.3455   -2.4182   -2.0229 C.3       1 <0>        -0.1554
     19 C16         0.5945    3.6633   -4.2904 C.3       1 <0>         0.5059
     20 F1          1.8434    3.0387   -4.2036 F         1 <0>        -0.1509
     21 F2          0.6828    4.7651   -5.1479 F         1 <0>        -0.1501
     22 F3          0.1983    4.0923   -3.0191 F         1 <0>        -0.1508
     23 H1          0.7148    2.1433    0.1110 H         1 <0>         0.0626
     24 H2         -0.7851    2.1211   -0.8472 H         1 <0>         0.0512
     25 H3         -0.8646    2.2141    0.9286 H         1 <0>         0.0665
     26 H4          0.1210   -0.0554    1.0915 H         1 <0>         0.0843
     27 H5         -1.3789   -0.0776    0.1334 H         1 <0>         0.0653
     28 H6          1.4270    0.1022   -1.0539 H         1 <0>         0.1080
     29 H7          0.7005    1.8530   -2.5432 H         1 <0>         0.1613
     30 H8         -0.9131    3.8620   -6.5518 H         1 <0>         0.2053
     31 H9         -2.6592   -1.2681   -4.4381 H         1 <0>         0.1690
     32 H10        -2.2036   -2.6261   -2.6048 H         1 <0>         0.4236
     33 H11        -1.5011   -2.0298   -0.1181 H         1 <0>         0.0983
     34 H12        -0.8681   -3.5019   -0.8886 H         1 <0>         0.1105
     35 H13         0.9547   -2.0956    0.0746 H         1 <0>         0.1145
     36 H14         2.3498   -1.9966   -1.9814 H         1 <0>         0.0715
     37 H15         1.4019   -3.5019   -1.9199 H         1 <0>         0.0686
     38 H16         0.8853   -2.1675   -2.9786 H         1 <0>         0.0500
     39 H17        -3.3097    1.6270   -7.8948 H         1 <0>         0.4454
@<TRIPOS>BOND
     1    1    2 1
     2    1   23 1
     3    1   24 1
     4    1   25 1
     5    2    3 1
     6    2   26 1
     7    2   27 1
     8    3   17 1
     9    3    4 1
    10    3   28 1
    11    4   14 ar
    12    4    5 ar
    13    5    6 ar
    14    5   29 1
    15    6   12 ar
    16    6    7 2
    17    7    8 1
    18    7   19 1
    19    8    9 2
    20    8   30 1
    21    9   10 1
    22    9   11 1
    23   10   39 1
    24   11   12 1
    25   12   13 ar
    26   13   14 ar
    27   13   31 1
    28   14   15 2
    29   15   16 1
    30   15   32 1
    31   16   17 1
    32   16   33 1
    33   16   34 1
    34   17   18 1
    35   17   35 1
    36   18   36 1
    37   18   37 1
    38   18   38 1
    39   19   20 1
    40   19   21 1
    41   19   22 1
@<TRIPOS>MOLECULE
CHEMBL268568__2
   39    41     0     0     0
SMALL
USER_CHARGES

@<TRIPOS>ATOM
      1 C1          0.6428   -0.8092    1.4272 C.3       1 <0>        -0.1626
      2 C2          0.0434   -0.1074    0.2069 C.3       1 <0>        -0.1253
      3 C3          0.8087   -0.5269   -1.0498 C.3       1 <0>        -0.0494
      4 C4          2.2522   -0.1042   -0.9284 C.ar      1 <0>        -0.1282
      5 C5          2.5614    1.0224   -0.2433 C.ar      1 <0>        -0.0012
      6 C6          3.9056    1.4284   -0.1175 C.ar      1 <0>        -0.1818
      7 C7          4.2386    2.5941    0.5915 C.2       1 <0>         0.0536
      8 C8          5.5766    2.9461    0.6845 C.2       1 <0>        -0.2303
      9 C9          6.5381    2.1552    0.0870 C.2       1 <0>         0.4471
     10 O1          7.8333    2.5141    0.1890 O.3       1 <0>        -0.3654
     11 O2          6.2262    1.0457   -0.5885 O.3       1 <0>        -0.1979
     12 C10         4.9391    0.6602   -0.7073 C.ar      1 <0>         0.2288
     13 C11         4.6194   -0.4839   -1.4035 C.ar      1 <0>        -0.2503
     14 C12         3.2721   -0.8819   -1.5263 C.ar      1 <0>         0.3574
     15 N1          2.9865   -1.9857   -2.2095 N.pl3     1 <0>        -0.6389
     16 C13         1.6172   -2.4554   -2.3981 C.3       1 <0>         0.0883
     17 C14         0.7558   -2.0515   -1.1994 C.3       1 <0>        -0.1088
     18 C15        -0.6899   -2.4947   -1.4332 C.3       1 <0>        -0.1506
     19 C16         3.1699    3.4403    1.2340 C.3       1 <0>         0.5055
     20 F1          2.5046    2.6900    2.2095 F         1 <0>        -0.1502
     21 F2          3.7579    4.5618    1.8289 F         1 <0>        -0.1500
     22 F3          2.2551    3.8548    0.2601 F         1 <0>        -0.1513
     23 H1          0.4646   -1.8820    1.3533 H         1 <0>         0.0623
     24 H2          1.7158   -0.6208    1.4640 H         1 <0>         0.0504
     25 H3          0.1752   -0.4248    2.3336 H         1 <0>         0.0660
     26 H4         -1.0048   -0.3884    0.1047 H         1 <0>         0.0873
     27 H5          0.1193    0.9723    0.3350 H         1 <0>         0.0711
     28 H6          0.3598   -0.0576   -1.9252 H         1 <0>         0.1057
     29 H7          1.7763    1.6113    0.2075 H         1 <0>         0.1641
     30 H8          5.8660    3.8367    1.2226 H         1 <0>         0.2054
     31 H9          5.4007   -1.0766   -1.8559 H         1 <0>         0.1692
     32 H10         3.7139   -2.4976   -2.5964 H         1 <0>         0.4236
     33 H11         1.2047   -2.0134   -3.3051 H         1 <0>         0.0964
     34 H12         1.6172   -3.5412   -2.4943 H         1 <0>         0.1107
     35 H13         1.1435   -2.5215   -0.2956 H         1 <0>         0.0944
     36 H14        -1.0704   -2.0283   -2.3419 H         1 <0>         0.0662
     37 H15        -0.7249   -3.5789   -1.5393 H         1 <0>         0.0684
     38 H16        -1.3042   -2.1926   -0.5850 H         1 <0>         0.0746
     39 H17         8.4448    1.9107   -0.2549 H         1 <0>         0.4455
@<TRIPOS>BOND
     1    1    2 1
     2    1   23 1
     3    1   24 1
     4    1   25 1
     5    2    3 1
     6    2   26 1
     7    2   27 1
     8    3   17 1
     9    3    4 1
    10    3   28 1
    11    4   14 ar
    12    4    5 ar
    13    5    6 ar
    14    5   29 1
    15    6   12 ar
    16    6    7 2
    17    7    8 1
    18    7   19 1
    19    8    9 2
    20    8   30 1
    21    9   10 1
    22    9   11 1
    23   10   39 1
    24   11   12 1
    25   12   13 ar
    26   13   14 ar
    27   13   31 1
    28   14   15 2
    29   15   16 1
    30   15   32 1
    31   16   17 1
    32   16   33 1
    33   16   34 1
    34   17   18 1
    35   17   35 1
    36   18   36 1
    37   18   37 1
    38   18   38 1
    39   19   20 1
    40   19   21 1
    41   19   22 1
@<TRIPOS>MOLECULE
CHEMBL268568__3
   39    41     0     0     0
SMALL
USER_CHARGES

@<TRIPOS>ATOM
      1 C1         -1.3949   -0.4845    0.5045 C.3       1 <0>        -0.1584
      2 C2          0.1055   -0.1860    0.5247 C.3       1 <0>        -0.1255
      3 C3          0.7741   -0.8510   -0.6802 C.3       1 <0>        -0.0492
      4 C4          2.2403   -0.4951   -0.7062 C.ar      1 <0>        -0.1276
      5 C5          2.6417    0.7109   -0.2386 C.ar      1 <0>        -0.0038
      6 C6          4.0085    1.0567   -0.2524 C.ar      1 <0>        -0.1811
      7 C7          4.4369    2.3038    0.2309 C.2       1 <0>         0.0531
      8 C8          5.7929    2.5912    0.1943 C.2       1 <0>        -0.2304
      9 C9          6.6793    1.6595   -0.3089 C.2       1 <0>         0.4465
     10 O1          7.9935    1.9576   -0.3356 O.3       1 <0>        -0.3656
     11 O2          6.2765    0.4721   -0.7698 O.3       1 <0>        -0.1981
     12 C10         4.9681    0.1445   -0.7555 C.ar      1 <0>         0.2293
     13 C11         4.5547   -1.0800   -1.2306 C.ar      1 <0>        -0.2516
     14 C12         3.1855   -1.4171   -1.2150 C.ar      1 <0>         0.3594
     15 N1          2.8087   -2.6016   -1.6858 N.pl3     1 <0>        -0.6365
     16 C13         1.4103   -3.0192   -1.7218 C.3       1 <0>         0.0895
     17 C14         0.6417   -2.3739   -0.5664 C.3       1 <0>        -0.1096
     18 C15         1.2297   -2.8423    0.7661 C.3       1 <0>        -0.1577
     19 C16         3.4489    3.3035    0.7745 C.3       1 <0>         0.5059
     20 F1          2.7458    2.7319    1.8404 F         1 <0>        -0.1512
     21 F2          4.1327    4.4388    1.2223 F         1 <0>        -0.1500
     22 F3          2.5509    3.6676   -0.2346 F         1 <0>        -0.1507
     23 H1         -1.8332   -0.0819   -0.4088 H         1 <0>         0.0606
     24 H2         -1.5514   -1.5627    0.5380 H         1 <0>         0.0610
     25 H3         -1.8692   -0.0214    1.3698 H         1 <0>         0.0649
     26 H4          0.2623    0.8916    0.4783 H         1 <0>         0.0699
     27 H5          0.5414   -0.5773    1.4439 H         1 <0>         0.0770
     28 H6          0.2959   -0.5098   -1.5983 H         1 <0>         0.1058
     29 H7          1.9132    1.4095    0.1455 H         1 <0>         0.1639
     30 H8          6.1549    3.5415    0.5582 H         1 <0>         0.2054
     31 H9          5.2792   -1.7823   -1.6154 H         1 <0>         0.1690
     32 H10         3.4872   -3.2106   -2.0170 H         1 <0>         0.4236
     33 H11         0.9653   -2.7121   -2.6683 H         1 <0>         0.0968
     34 H12         1.3542   -4.1041   -1.6325 H         1 <0>         0.1111
     35 H13        -0.4098   -2.6550   -0.6242 H         1 <0>         0.1158
     36 H14         0.6908   -2.3697    1.5873 H         1 <0>         0.0754
     37 H15         1.1344   -3.9253    0.8446 H         1 <0>         0.0675
     38 H16         2.2829   -2.5657    0.8158 H         1 <0>         0.0500
     39 H17         8.5488    1.2556   -0.7016 H         1 <0>         0.4454
@<TRIPOS>BOND
     1    1    2 1
     2    1   23 1
     3    1   24 1
     4    1   25 1
     5    2    3 1
     6    2   26 1
     7    2   27 1
     8    3   17 1
     9    3    4 1
    10    3   28 1
    11    4   14 ar
    12    4    5 ar
    13    5    6 ar
    14    5   29 1
    15    6   12 ar
    16    6    7 2
    17    7    8 1
    18    7   19 1
    19    8    9 2
    20    8   30 1
    21    9   10 1
    22    9   11 1
    23   10   39 1
    24   11   12 1
    25   12   13 ar
    26   13   14 ar
    27   13   31 1
    28   14   15 2
    29   15   16 1
    30   15   32 1
    31   16   17 1
    32   16   33 1
    33   16   34 1
    34   17   18 1
    35   17   35 1
    36   18   36 1
    37   18   37 1
    38   18   38 1
    39   19   20 1
    40   19   21 1
    41   19   22 1
@<TRIPOS>MOLECULE
CHEMBL181571
   39    43     0     0     0
SMALL
USER_CHARGES

@<TRIPOS>ATOM
      1 C1          0.0219    1.2850   -0.7867 C.ar      1 <0>        -0.0946
      2 C2          1.2071    2.0180   -0.7973 C.ar      1 <0>        -0.0852
      3 C3          2.4043    1.4175   -0.5558 C.ar      1 <0>        -0.1142
      4 C4          2.4496    0.0376   -0.2908 C.ar      1 <0>        -0.0082
      5 C5          1.2440   -0.7065   -0.2798 C.ar      1 <0>        -0.0372
      6 C6          0.0279   -0.0527   -0.5339 C.ar      1 <0>        -0.0992
      7 C7          1.2891   -2.0911   -0.0140 C.ar      1 <0>         0.1755
      8 C8          2.5035   -2.6940    0.2298 C.ar      1 <0>        -0.1012
      9 C9          3.6815   -1.9530    0.2165 C.ar      1 <0>        -0.0281
     10 C10         3.6676   -0.6153   -0.0367 C.ar      1 <0>        -0.0209
     11 N1          4.9345    0.1504   -0.0453 N.pl3     1 <0>         0.0300
     12 O1          5.9381   -0.3465   -0.5008 O.2       1 <0>        -0.1412
     13 O2          4.9656    1.2727    0.4033 O.3       1 <0>        -0.1448
     14 N2          0.1107   -2.8453    0.0022 N.am      1 <0>        -0.5383
     15 C11        -0.3779   -3.4472   -1.0880 C.2       1 <0>         0.5331
     16 O3          0.1250   -3.4141   -2.1905 O.2       1 <0>        -0.4559
     17 C12        -1.6539   -4.1754   -0.7322 C.3       1 <0>        -0.1182
     18 H1         -2.5093   -3.8649   -1.3322 H         1 <0>         0.1435
     19 C13        -1.8213   -3.8813    0.7880 C.3       1 <0>        -0.1177
     20 H2         -2.7698   -3.4056    1.0373 H         1 <0>         0.1442
     21 C14        -0.6160   -3.0279    1.1105 C.2       1 <0>         0.5336
     22 O4         -0.3502   -2.5767    2.2039 O.2       1 <0>        -0.4559
     23 C15        -1.6394   -5.2820    1.4527 C.3       1 <0>        -0.0581
     24 C16        -0.5312   -5.8980    0.5230 C.3       1 <0>        -0.1341
     25 C17        -1.3768   -5.7102   -0.7996 C.3       1 <0>        -0.0577
     26 C18        -2.6876   -6.3484   -0.3240 C.2       1 <0>        -0.1556
     27 C19        -2.8565   -6.0840    0.9764 C.2       1 <0>        -0.1573
     28 H3         -0.9155    1.7863   -0.9774 H         1 <0>         0.1382
     29 H4          1.1751    3.0782   -1.0005 H         1 <0>         0.1409
     30 H5          3.3149    1.9980   -0.5679 H         1 <0>         0.1524
     31 H6         -0.8983   -0.6082   -0.5285 H         1 <0>         0.1281
     32 H7          2.5418   -3.7538    0.4341 H         1 <0>         0.1524
     33 H8          4.6221   -2.4471    0.4105 H         1 <0>         0.1607
     34 H9         -1.4494   -5.2850    2.5260 H         1 <0>         0.1214
     35 H10         0.3808   -5.3012    0.5087 H         1 <0>         0.0665
     36 H11        -0.3330   -6.9460    0.7476 H         1 <0>         0.0973
     37 H12        -0.9562   -6.0834   -1.7333 H         1 <0>         0.1246
     38 H13        -3.3841   -6.8959   -0.9417 H         1 <0>         0.1384
     39 H14        -3.6891   -6.3929    1.5910 H         1 <0>         0.1426
@<TRIPOS>BOND
     1    1    6 ar
     2    1    2 ar
     3    1   28 1
     4    2    3 ar
     5    2   29 1
     6    3    4 ar
     7    3   30 1
     8    4   10 ar
     9    4    5 ar
    10    5    6 ar
    11    5    7 ar
    12    6   31 1
    13    7    8 ar
    14    7   14 1
    15    8    9 ar
    16    8   32 1
    17    9   10 ar
    18    9   33 1
    19   10   11 1
    20   11   12 2
    21   11   13 1
    22   14   21 am
    23   14   15 am
    24   15   16 2
    25   15   17 1
    26   17   18 1
    27   17   25 1
    28   17   19 1
    29   19   20 1
    30   19   21 1
    31   19   23 1
    32   21   22 2
    33   23   27 1
    34   23   24 1
    35   23   34 1
    36   24   25 1
    37   24   35 1
    38   24   36 1
    39   25   26 1
    40   25   37 1
    41   26   27 2
    42   26   38 1
    43   27   39 1
@<TRIPOS>MOLECULE
CHEMBL181571__1
   39    43     0     0     0
SMALL
USER_CHARGES

@<TRIPOS>ATOM
      1 C1          0.0219    1.2850   -0.7867 C.ar      1 <0>        -0.0952
      2 C2          1.2071    2.0180   -0.7973 C.ar      1 <0>        -0.0853
      3 C3          2.4043    1.4175   -0.5558 C.ar      1 <0>        -0.1145
      4 C4          2.4496    0.0376   -0.2908 C.ar      1 <0>        -0.0080
      5 C5          1.2440   -0.7065   -0.2798 C.ar      1 <0>        -0.0380
      6 C6          0.0279   -0.0527   -0.5339 C.ar      1 <0>        -0.0987
      7 C7          1.2891   -2.0911   -0.0140 C.ar      1 <0>         0.1791
      8 C8          2.5035   -2.6940    0.2298 C.ar      1 <0>        -0.1016
      9 C9          3.6815   -1.9530    0.2165 C.ar      1 <0>        -0.0282
     10 C10         3.6676   -0.6153   -0.0367 C.ar      1 <0>        -0.0219
     11 N1          4.9345    0.1504   -0.0453 N.pl3     1 <0>         0.0302
     12 O1          5.9381   -0.3465   -0.5008 O.2       1 <0>        -0.1419
     13 O2          4.9656    1.2727    0.4033 O.3       1 <0>        -0.1450
     14 N2          0.1107   -2.8453    0.0022 N.am      1 <0>        -0.5359
     15 C11        -0.3779   -3.4472   -1.0880 C.2       1 <0>         0.5362
     16 O3          0.1254   -3.4146   -2.1904 O.2       1 <0>        -0.4590
     17 C12        -1.6545   -4.1747   -0.7327 C.3       1 <0>        -0.1217
     18 H1         -2.5099   -3.8628   -1.3319 H         1 <0>         0.1450
     19 C13        -1.8207   -3.8821    0.7880 C.3       1 <0>        -0.1204
     20 H2         -2.7694   -3.4076    1.0387 H         1 <0>         0.1460
     21 C14        -0.6159   -3.0279    1.1105 C.2       1 <0>         0.5369
     22 O4         -0.3506   -2.5761    2.2037 O.2       1 <0>        -0.4588
     23 C15        -1.6366   -5.2832    1.4512 C.3       1 <0>        -0.0544
     24 C16        -2.3335   -6.2001    0.3810 C.3       1 <0>        -0.1106
     25 C17        -1.3789   -5.7097   -0.8019 C.3       1 <0>        -0.0580
     26 C18        -0.0053   -5.8735   -0.1400 C.2       1 <0>        -0.1757
     27 C19        -0.1686   -5.6356    1.1822 C.2       1 <0>        -0.1750
     28 H3         -0.9155    1.7863   -0.9774 H         1 <0>         0.1381
     29 H4          1.1751    3.0782   -1.0005 H         1 <0>         0.1407
     30 H5          3.3149    1.9980   -0.5679 H         1 <0>         0.1522
     31 H6         -0.8983   -0.6082   -0.5285 H         1 <0>         0.1280
     32 H7          2.5418   -3.7538    0.4341 H         1 <0>         0.1514
     33 H8          4.6221   -2.4471    0.4105 H         1 <0>         0.1599
     34 H9         -1.9737   -5.3756    2.4837 H         1 <0>         0.1241
     35 H10        -2.2130   -7.2614    0.5984 H         1 <0>         0.0910
     36 H11        -3.3766   -5.9304    0.2158 H         1 <0>         0.0896
     37 H12        -1.5174   -6.1808   -1.7750 H         1 <0>         0.1240
     38 H13         0.9125   -6.1346   -0.6459 H         1 <0>         0.1407
     39 H14         0.6175   -5.6735    1.9217 H         1 <0>         0.1347
@<TRIPOS>BOND
     1    1    6 ar
     2    1    2 ar
     3    1   28 1
     4    2    3 ar
     5    2   29 1
     6    3    4 ar
     7    3   30 1
     8    4   10 ar
     9    4    5 ar
    10    5    6 ar
    11    5    7 ar
    12    6   31 1
    13    7    8 ar
    14    7   14 1
    15    8    9 ar
    16    8   32 1
    17    9   10 ar
    18    9   33 1
    19   10   11 1
    20   11   12 2
    21   11   13 1
    22   14   21 am
    23   14   15 am
    24   15   16 2
    25   15   17 1
    26   17   18 1
    27   17   25 1
    28   17   19 1
    29   19   20 1
    30   19   21 1
    31   19   23 1
    32   21   22 2
    33   23   27 1
    34   23   24 1
    35   23   34 1
    36   24   25 1
    37   24   35 1
    38   24   36 1
    39   25   26 1
    40   25   37 1
    41   26   27 2
    42   26   38 1
    43   27   39 1
@<TRIPOS>MOLECULE
CHEMBL76533
   59    63     0     0     0
SMALL
USER_CHARGES

@<TRIPOS>ATOM
      1 C1          0.0128    1.5268    0.0277 C.3       1 <0>        -0.1530
      2 C2          0.0357   -0.0030    0.0207 C.3       1 <0>        -0.0633
      3 C3         -1.3977   -0.5337    0.0739 C.3       1 <0>        -0.1165
      4 C4         -2.1128    0.1373    1.2508 C.3       1 <0>        -0.1346
      5 C5         -1.2524    0.0957    2.4798 C.2       1 <0>         0.5167
      6 O1         -1.7790    0.3065    3.5518 O.2       1 <0>        -0.5555
      7 N1          0.0591   -0.1603    2.4638 N.am      1 <0>        -0.6001
      8 C6          0.7873   -0.5063    1.2538 C.3       1 <0>         0.1533
      9 C7          2.1986    0.0761    1.2593 C.3       1 <0>        -0.1311
     10 C8          2.9328   -0.3826   -0.0050 C.3       1 <0>        -0.1095
     11 C9          2.1758    0.0916   -1.2447 C.3       1 <0>        -0.0803
     12 C10         0.7506   -0.4948   -1.2356 C.3       1 <0>        -0.0635
     13 C11        -0.0299   -0.0840   -2.4794 C.3       1 <0>        -0.1194
     14 C12         0.7237   -0.4630   -3.7655 C.3       1 <0>        -0.1039
     15 C13         2.0810    0.2079   -3.7079 C.3       1 <0>        -0.0502
     16 C14         2.8566   -0.4016   -2.5069 C.3       1 <0>        -0.0801
     17 C15         4.2780    0.1211   -2.7472 C.3       1 <0>        -0.1119
     18 C16         4.4469   -0.0195   -4.2871 C.3       1 <0>        -0.1460
     19 C17         3.0190   -0.0133   -4.8757 C.3       1 <0>         0.1188
     20 C18         2.7227   -1.3328   -5.6087 C.3       1 <0>        -0.1483
     21 C19         2.9985   -0.9552   -7.0861 C.3       1 <0>        -0.1864
     22 C20         3.4409    0.4985   -7.0097 C.2       1 <0>         0.4821
     23 O2          4.1405    1.0850   -7.8012 O.2       1 <0>        -0.4401
     24 O3          2.8942    1.0056   -5.8757 O.3       1 <0>        -0.3369
     25 C21         1.9026    1.7086   -3.4693 C.3       1 <0>        -0.1463
     26 C22         0.7990   -0.0882    3.7262 C.3       1 <0>         0.0691
     27 H1          1.0348    1.9055    0.0104 H         1 <0>         0.0661
     28 H2         -0.5228    1.8862   -0.8510 H         1 <0>         0.0641
     29 H3         -0.4898    1.8785    0.9286 H         1 <0>         0.0555
     30 H4         -1.9137   -0.2930   -0.8555 H         1 <0>         0.0837
     31 H5         -1.3849   -1.6139    0.2190 H         1 <0>         0.0711
     32 H6         -2.3286    1.1752    0.9970 H         1 <0>         0.1018
     33 H7         -3.0491   -0.3844    1.4485 H         1 <0>         0.0995
     34 H8          0.8710   -1.5915    1.1937 H         1 <0>         0.0685
     35 H9          2.1438    1.1646    1.2746 H         1 <0>         0.0739
     36 H10         2.7349   -0.2759    2.1405 H         1 <0>         0.0714
     37 H11         3.9387    0.0372   -0.0121 H         1 <0>         0.0708
     38 H12         2.9954   -1.4707   -0.0129 H         1 <0>         0.0652
     39 H13         2.1335    1.1808   -1.2533 H         1 <0>         0.0898
     40 H14         0.8110   -1.5827   -1.2070 H         1 <0>         0.0732
     41 H15        -0.9987   -0.5834   -2.4734 H         1 <0>         0.0685
     42 H16        -0.1859    0.9947   -2.4623 H         1 <0>         0.0738
     43 H17         0.8467   -1.5447   -3.8180 H         1 <0>         0.0700
     44 H18         0.1719   -0.1091   -4.6364 H         1 <0>         0.0695
     45 H19         2.8268   -1.4902   -2.5533 H         1 <0>         0.0809
     46 H20         4.3612    1.1648   -2.4441 H         1 <0>         0.0744
     47 H21         5.0088   -0.4935   -2.2216 H         1 <0>         0.0730
     48 H22         5.0245    0.8175   -4.6794 H         1 <0>         0.0781
     49 H23         4.9401   -0.9616   -4.5262 H         1 <0>         0.0791
     50 H24         3.3983   -2.1213   -5.2770 H         1 <0>         0.0938
     51 H25         1.6825   -1.6281   -5.4713 H         1 <0>         0.0990
     52 H26         3.7936   -1.5765   -7.4984 H         1 <0>         0.1070
     53 H27         2.0902   -1.0485   -7.6814 H         1 <0>         0.1150
     54 H28         1.2957    1.8652   -2.5775 H         1 <0>         0.0703
     55 H29         2.8789    2.1730   -3.3305 H         1 <0>         0.0579
     56 H30         1.4061    2.1568   -4.3300 H         1 <0>         0.0610
     57 H31         0.1165    0.1808    4.5324 H         1 <0>         0.0902
     58 H32         1.2490   -1.0578    3.9394 H         1 <0>         0.0593
     59 H33         1.5818    0.6660    3.6460 H         1 <0>         0.0613
@<TRIPOS>BOND
     1    1    2 1
     2    1   27 1
     3    1   28 1
     4    1   29 1
     5    2    8 1
     6    2   12 1
     7    2    3 1
     8    3    4 1
     9    3   30 1
    10    3   31 1
    11    4    5 1
    12    4   32 1
    13    4   33 1
    14    5    6 2
    15    5    7 am
    16    7    8 1
    17    7   26 1
    18    8    9 1
    19    8   34 1
    20    9   10 1
    21    9   35 1
    22    9   36 1
    23   10   11 1
    24   10   37 1
    25   10   38 1
    26   11   16 1
    27   11   12 1
    28   11   39 1
    29   12   13 1
    30   12   40 1
    31   13   14 1
    32   13   41 1
    33   13   42 1
    34   14   15 1
    35   14   43 1
    36   14   44 1
    37   15   19 1
    38   15   16 1
    39   15   25 1
    40   16   17 1
    41   16   45 1
    42   17   18 1
    43   17   46 1
    44   17   47 1
    45   18   19 1
    46   18   48 1
    47   18   49 1
    48   19   24 1
    49   19   20 1
    50   20   21 1
    51   20   50 1
    52   20   51 1
    53   21   22 1
    54   21   52 1
    55   21   53 1
    56   22   23 2
    57   22   24 1
    58   25   54 1
    59   25   55 1
    60   25   56 1
    61   26   57 1
    62   26   58 1
    63   26   59 1
@<TRIPOS>MOLECULE
CHEMBL359911
   39    43     0     0     0
SMALL
USER_CHARGES

@<TRIPOS>ATOM
      1 C1         -0.7222    0.0474    1.0985 C.ar      1 <0>        -0.1100
      2 C2         -0.2878   -0.6107    2.2477 C.ar      1 <0>        -0.1121
      3 C3          0.8996   -1.2754    2.2677 C.ar      1 <0>        -0.1021
      4 C4          1.7023   -1.3005    1.1138 C.ar      1 <0>        -0.0442
      5 C5          2.9330   -1.9767    1.0975 C.ar      1 <0>        -0.0821
      6 C6          3.6867   -1.9802   -0.0425 C.ar      1 <0>         0.1142
      7 C7          3.2480   -1.3183   -1.1947 C.ar      1 <0>        -0.1038
      8 C8          2.0615   -0.6546   -1.2101 C.ar      1 <0>        -0.0889
      9 C9          1.2603   -0.6310   -0.0549 C.ar      1 <0>        -0.0461
     10 C10         0.0284    0.0446   -0.0369 C.ar      1 <0>        -0.1051
     11 N1          4.9151   -2.6549   -0.0576 N.am      1 <0>        -0.5330
     12 C11         6.0882   -2.0197   -0.1581 C.2       1 <0>         0.5363
     13 O1          6.2291   -0.8188   -0.2455 O.2       1 <0>        -0.4682
     14 C12         7.2110   -3.0320   -0.1448 C.3       1 <0>        -0.1243
     15 H1          7.8492   -2.9727   -1.0265 H         1 <0>         0.1367
     16 C13         6.4661   -4.3913   -0.0180 C.3       1 <0>        -0.1233
     17 H2          6.6919   -5.0820   -0.8304 H         1 <0>         0.1370
     18 C14         5.0103   -3.9864    0.0329 C.2       1 <0>         0.5370
     19 O2          4.0744   -4.7499    0.1364 O.2       1 <0>        -0.4685
     20 C15         6.8869   -4.9371    1.3796 C.3       1 <0>        -0.0809
     21 C16         6.1696   -3.9998    2.3984 C.3       1 <0>        -0.1367
     22 C17         6.9086   -2.6480    2.2725 C.3       1 <0>        -0.1375
     23 C18         8.0002   -2.8741    1.1896 C.3       1 <0>        -0.0818
     24 C19         8.3576   -4.3984    1.4740 C.3       1 <0>        -0.1176
     25 H3         -1.6707    0.5637    1.1078 H         1 <0>         0.1268
     26 H4         -0.9024   -0.5927    3.1356 H         1 <0>         0.1269
     27 H5          1.2237   -1.7808    3.1654 H         1 <0>         0.1288
     28 H6          3.2820   -2.4908    1.9809 H         1 <0>         0.1292
     29 H7          3.8605   -1.3346   -2.0840 H         1 <0>         0.1269
     30 H8          1.7356   -0.1475   -2.1062 H         1 <0>         0.1376
     31 H9         -0.3214    0.5589   -0.9199 H         1 <0>         0.1310
     32 H10         6.7569   -6.0088    1.5304 H         1 <0>         0.1192
     33 H11         5.1185   -3.8844    2.1338 H         1 <0>         0.0630
     34 H12         6.2667   -4.3932    3.4103 H         1 <0>         0.0817
     35 H13         6.2210   -1.8680    1.9455 H         1 <0>         0.0633
     36 H14         7.3685   -2.3764    3.2227 H         1 <0>         0.0814
     37 H15         8.8287   -2.1660    1.1711 H         1 <0>         0.1214
     38 H16         8.7809   -4.5377    2.4688 H         1 <0>         0.0849
     39 H17         8.9981   -4.8206    0.6996 H         1 <0>         0.0826
@<TRIPOS>BOND
     1    1   10 ar
     2    1    2 ar
     3    1   25 1
     4    2    3 ar
     5    2   26 1
     6    3    4 ar
     7    3   27 1
     8    4    9 ar
     9    4    5 ar
    10    5    6 ar
    11    5   28 1
    12    6    7 ar
    13    6   11 1
    14    7    8 ar
    15    7   29 1
    16    8    9 ar
    17    8   30 1
    18    9   10 ar
    19   10   31 1
    20   11   18 am
    21   11   12 am
    22   12   13 2
    23   12   14 1
    24   14   15 1
    25   14   23 1
    26   14   16 1
    27   16   17 1
    28   16   18 1
    29   16   20 1
    30   18   19 2
    31   20   24 1
    32   20   21 1
    33   20   32 1
    34   21   22 1
    35   21   33 1
    36   21   34 1
    37   22   23 1
    38   22   35 1
    39   22   36 1
    40   23   24 1
    41   23   37 1
    42   24   38 1
    43   24   39 1
@<TRIPOS>MOLECULE
CHEMBL359911__1
   39    43     0     0     0
SMALL
USER_CHARGES

@<TRIPOS>ATOM
      1 C1         -0.7223    0.0473    1.0985 C.ar      1 <0>        -0.1099
      2 C2         -0.2879   -0.6110    2.2476 C.ar      1 <0>        -0.1122
      3 C3          0.8994   -1.2757    2.2676 C.ar      1 <0>        -0.1018
      4 C4          1.7022   -1.3007    1.1137 C.ar      1 <0>        -0.0445
      5 C5          2.9329   -1.9769    1.0975 C.ar      1 <0>        -0.0812
      6 C6          3.6867   -1.9802   -0.0425 C.ar      1 <0>         0.1133
      7 C7          3.2480   -1.3182   -1.1946 C.ar      1 <0>        -0.1037
      8 C8          2.0616   -0.6545   -1.2100 C.ar      1 <0>        -0.0890
      9 C9          1.2603   -0.6310   -0.0549 C.ar      1 <0>        -0.0461
     10 C10         0.0284    0.0446   -0.0369 C.ar      1 <0>        -0.1053
     11 N1          4.9151   -2.6549   -0.0576 N.am      1 <0>        -0.5305
     12 C11         6.0883   -2.0196   -0.1581 C.2       1 <0>         0.5305
     13 O1          6.2290   -0.8187   -0.2453 O.2       1 <0>        -0.4655
     14 C12         7.2112   -3.0319   -0.1460 C.3       1 <0>        -0.1215
     15 H1          7.8477   -2.9734   -1.0289 H         1 <0>         0.1369
     16 C13         6.4662   -4.3909   -0.0168 C.3       1 <0>        -0.1203
     17 H2          6.6923   -5.0832   -0.8278 H         1 <0>         0.1375
     18 C14         5.0103   -3.9863    0.0329 C.2       1 <0>         0.5309
     19 O2          4.0744   -4.7499    0.1362 O.2       1 <0>        -0.4657
     20 C15         6.8864   -4.9340    1.3821 C.3       1 <0>        -0.0826
     21 C16         8.3872   -5.3230    1.2167 C.3       1 <0>        -0.1188
     22 C17         9.1285   -3.9728    1.0873 C.3       1 <0>        -0.1204
     23 C18         8.0029   -2.8731    1.1868 C.3       1 <0>        -0.0850
     24 C19         7.0200   -3.5945    2.1884 C.3       1 <0>        -0.1368
     25 H3         -1.6708    0.5636    1.1077 H         1 <0>         0.1268
     26 H4         -0.9026   -0.5931    3.1354 H         1 <0>         0.1269
     27 H5          1.2235   -1.7812    3.1653 H         1 <0>         0.1291
     28 H6          3.2818   -2.4910    1.9808 H         1 <0>         0.1298
     29 H7          3.8607   -1.3343   -2.0839 H         1 <0>         0.1268
     30 H8          1.7358   -0.1472   -2.1061 H         1 <0>         0.1376
     31 H9         -0.3214    0.5590   -0.9198 H         1 <0>         0.1310
     32 H10         6.2327   -5.6918    1.8140 H         1 <0>         0.1159
     33 H11         8.7378   -5.8665    2.0941 H         1 <0>         0.0753
     34 H12         8.5276   -5.9215    0.3166 H         1 <0>         0.0736
     35 H13         9.8441   -3.8527    1.9008 H         1 <0>         0.0743
     36 H14         9.6331   -3.9072    0.1234 H         1 <0>         0.0724
     37 H15         8.3301   -1.8617    1.4279 H         1 <0>         0.1195
     38 H16         6.0698   -3.0656    2.2627 H         1 <0>         0.0628
     39 H17         7.4735   -3.7501    3.1672 H         1 <0>         0.0897
@<TRIPOS>BOND
     1    1   10 ar
     2    1    2 ar
     3    1   25 1
     4    2    3 ar
     5    2   26 1
     6    3    4 ar
     7    3   27 1
     8    4    9 ar
     9    4    5 ar
    10    5    6 ar
    11    5   28 1
    12    6    7 ar
    13    6   11 1
    14    7    8 ar
    15    7   29 1
    16    8    9 ar
    17    8   30 1
    18    9   10 ar
    19   10   31 1
    20   11   18 am
    21   11   12 am
    22   12   13 2
    23   12   14 1
    24   14   15 1
    25   14   23 1
    26   14   16 1
    27   16   17 1
    28   16   18 1
    29   16   20 1
    30   18   19 2
    31   20   24 1
    32   20   21 1
    33   20   32 1
    34   21   22 1
    35   21   33 1
    36   21   34 1
    37   22   23 1
    38   22   35 1
    39   22   36 1
    40   23   24 1
    41   23   37 1
    42   24   38 1
    43   24   39 1
@<TRIPOS>MOLECULE
CHEMBL361222
   34    37     0     0     0
SMALL
USER_CHARGES

@<TRIPOS>ATOM
      1 C1          0.4228    0.6603    1.1458 C.ar      1 <0>        -0.0617
      2 C2          1.6095    1.3672    1.1354 C.ar      1 <0>        -0.0767
      3 C3          2.3784    1.4135   -0.0137 C.ar      1 <0>        -0.0424
      4 C4          1.9609    0.7524   -1.1554 C.ar      1 <0>        -0.1483
      5 C5          0.7754    0.0443   -1.1502 C.ar      1 <0>        -0.0477
      6 C6          0.0021   -0.0041    0.0020 C.ar      1 <0>         0.1240
      7 N1         -1.2020   -0.7228    0.0101 N.am      1 <0>        -0.5337
      8 C7         -1.2491   -2.0560   -0.0890 C.2       1 <0>         0.5324
      9 O1         -0.2859   -2.7845   -0.1947 O.2       1 <0>        -0.4577
     10 C8         -2.6892   -2.5137   -0.0482 C.3       1 <0>        -0.1188
     11 H1         -2.9794   -3.1027   -0.9182 H         1 <0>         0.1430
     12 C9         -3.4836   -1.1816    0.0938 C.3       1 <0>        -0.1181
     13 H2         -4.2169   -1.0258   -0.6974 H         1 <0>         0.1435
     14 C10        -2.3966   -0.1315    0.1232 C.2       1 <0>         0.5342
     15 O2         -2.5793    1.0622    0.2304 O.2       1 <0>        -0.4585
     16 C11        -4.1211   -1.2868    1.5148 C.3       1 <0>        -0.0580
     17 C12        -2.9668   -2.0176    2.2928 C.3       1 <0>        -0.1338
     18 C13        -2.9300   -3.2522    1.3059 C.3       1 <0>        -0.0577
     19 C14        -4.4285   -3.5779    1.2932 C.2       1 <0>        -0.1559
     20 C15        -5.1246   -2.4398    1.3912 C.2       1 <0>        -0.1580
     21 C16         2.8004    0.8057   -2.4058 C.3       1 <0>         0.5085
     22 F1          2.1771    0.0678   -3.4178 F         1 <0>        -0.1715
     23 F2          2.9407    2.1355   -2.8170 F         1 <0>        -0.1634
     24 F3          4.0630    0.2631   -2.1432 F         1 <0>        -0.1630
     25 Br1         4.0024    2.3822   -0.0244 Br        1 <0>        -0.0074
     26 H3         -0.1749    0.6208    2.0445 H         1 <0>         0.1474
     27 H4          1.9371    1.8846    2.0250 H         1 <0>         0.1579
     28 H5          0.4498   -0.4712   -2.0416 H         1 <0>         0.1523
     29 H6         -4.5021   -0.3592    1.9419 H         1 <0>         0.1212
     30 H7         -2.0319   -1.4575    2.2756 H         1 <0>         0.0671
     31 H8         -3.2584   -2.2993    3.3046 H         1 <0>         0.0964
     32 H9         -2.2487   -4.0712    1.5360 H         1 <0>         0.1241
     33 H10        -4.8600   -4.5624    1.1882 H         1 <0>         0.1379
     34 H11        -6.2003   -2.3445    1.4009 H         1 <0>         0.1422
@<TRIPOS>BOND
     1    1    6 ar
     2    1    2 ar
     3    1   26 1
     4    2    3 ar
     5    2   27 1
     6    3    4 ar
     7    3   25 1
     8    4    5 ar
     9    4   21 1
    10    5    6 ar
    11    5   28 1
    12    6    7 1
    13    7   14 am
    14    7    8 am
    15    8    9 2
    16    8   10 1
    17   10   11 1
    18   10   18 1
    19   10   12 1
    20   12   13 1
    21   12   14 1
    22   12   16 1
    23   14   15 2
    24   16   20 1
    25   16   17 1
    26   16   29 1
    27   17   18 1
    28   17   30 1
    29   17   31 1
    30   18   19 1
    31   18   32 1
    32   19   20 2
    33   19   33 1
    34   20   34 1
    35   21   22 1
    36   21   23 1
    37   21   24 1
@<TRIPOS>MOLECULE
CHEMBL361222__1
   34    37     0     0     0
SMALL
USER_CHARGES

@<TRIPOS>ATOM
      1 C1          0.7751    0.0442   -1.1498 C.ar      1 <0>        -0.0623
      2 C2          1.9606    0.7533   -1.1553 C.ar      1 <0>        -0.0768
      3 C3          2.3775    1.4150   -0.0142 C.ar      1 <0>        -0.0432
      4 C4          1.6088    1.3680    1.1355 C.ar      1 <0>        -0.1489
      5 C5          0.4229    0.6605    1.1461 C.ar      1 <0>        -0.0477
      6 C6          0.0021   -0.0041    0.0020 C.ar      1 <0>         0.1271
      7 N1         -1.2020   -0.7228    0.0101 N.am      1 <0>        -0.5314
      8 C7         -1.2491   -2.0561   -0.0890 C.2       1 <0>         0.5365
      9 O1         -0.2858   -2.7846   -0.1941 O.2       1 <0>        -0.4617
     10 C8         -2.6892   -2.5139   -0.0492 C.3       1 <0>        -0.1218
     11 H1         -2.9793   -3.1015   -0.9201 H         1 <0>         0.1445
     12 C9         -3.4833   -1.1818    0.0947 C.3       1 <0>        -0.1205
     13 H2         -4.2179   -1.0256   -0.6952 H         1 <0>         0.1453
     14 C10        -2.3965   -0.1315    0.1232 C.2       1 <0>         0.5362
     15 O2         -2.5793    1.0622    0.2297 O.2       1 <0>        -0.4605
     16 C11        -4.1186   -1.2878    1.5168 C.3       1 <0>        -0.0543
     17 C12        -4.4455   -2.8247    1.5703 C.3       1 <0>        -0.1108
     18 C13        -2.9304   -3.2544    1.3037 C.3       1 <0>        -0.0582
     19 C14        -2.2061   -2.3864    2.3399 C.2       1 <0>        -0.1744
     20 C15        -2.9171   -1.2421    2.4686 C.2       1 <0>        -0.1765
     21 C16         2.0665    2.0891    2.3771 C.3       1 <0>         0.5086
     22 F1          1.1313    1.8966    3.3996 F         1 <0>        -0.1720
     23 F2          3.3076    1.5839    2.7790 F         1 <0>        -0.1636
     24 F3          2.1853    3.4563    2.1052 F         1 <0>        -0.1631
     25 Br1         4.0008    2.3848   -0.0253 Br        1 <0>        -0.0082
     26 H3          0.4479   -0.4685   -2.0422 H         1 <0>         0.1479
     27 H4          2.5626    0.7909   -2.0512 H         1 <0>         0.1577
     28 H5         -0.1765    0.6238    2.0438 H         1 <0>         0.1506
     29 H6         -4.9326   -0.5961    1.7336 H         1 <0>         0.1238
     30 H7         -4.8003   -3.1422    2.5508 H         1 <0>         0.0905
     31 H8         -5.1159   -3.1371    0.7696 H         1 <0>         0.0893
     32 H9         -2.7114   -4.3221    1.3144 H         1 <0>         0.1235
     33 H10        -1.3006   -2.6526    2.8647 H         1 <0>         0.1403
     34 H11        -2.6636   -0.4243    3.1269 H         1 <0>         0.1345
@<TRIPOS>BOND
     1    1    6 ar
     2    1    2 ar
     3    1   26 1
     4    2    3 ar
     5    2   27 1
     6    3    4 ar
     7    3   25 1
     8    4    5 ar
     9    4   21 1
    10    5    6 ar
    11    5   28 1
    12    6    7 1
    13    7   14 am
    14    7    8 am
    15    8    9 2
    16    8   10 1
    17   10   11 1
    18   10   18 1
    19   10   12 1
    20   12   13 1
    21   12   14 1
    22   12   16 1
    23   14   15 2
    24   16   20 1
    25   16   17 1
    26   16   29 1
    27   17   18 1
    28   17   30 1
    29   17   31 1
    30   18   19 1
    31   18   32 1
    32   19   20 2
    33   19   33 1
    34   20   34 1
    35   21   22 1
    36   21   23 1
    37   21   24 1
@<TRIPOS>MOLECULE
CHEMBL520428
   57    60     0     0     0
SMALL
USER_CHARGES

@<TRIPOS>ATOM
      1 C1         -0.5847    1.7096   -0.5870 C.3       1 <0>         0.0629
      2 N1         -0.9300    0.2960   -0.4176 N.pl3     1 <0>        -0.3996
      3 C2         -0.6956   -0.6909   -1.3226 C.2       1 <0>        -0.0405
      4 C3         -1.1519   -1.8663   -0.8156 C.2       1 <0>         0.1183
      5 C4         -1.6910   -1.6046    0.4520 C.2       1 <0>        -0.1927
      6 C5         -1.5399   -0.2538    0.6865 C.2       1 <0>        -0.0138
      7 C6         -1.9566    0.4669    1.8937 C.2       1 <0>         0.5898
      8 O1         -2.2121    1.6554    1.8352 O.2       1 <0>        -0.5458
      9 N2         -2.0568   -0.1868    3.0680 N.am      1 <0>        -0.5952
     10 C7         -1.7286   -1.6160    3.1595 C.3       1 <0>         0.0714
     11 C8         -0.6975   -1.8148    4.2749 C.3       1 <0>        -0.1345
     12 C9         -1.2338   -1.2087    5.5738 C.3       1 <0>        -0.1225
     13 C10        -1.4565    0.2934    5.3840 C.3       1 <0>        -0.1348
     14 C11        -2.4903    0.5175    4.2824 C.3       1 <0>         0.1119
     15 N3         -1.0945   -3.1211   -1.4495 N.pl3     1 <0>        -0.5839
     16 C12        -0.4315   -3.2556   -2.7490 C.3       1 <0>         0.1764
     17 C13         1.0257   -3.5768   -2.5386 C.ar      1 <0>        -0.1112
     18 C14         1.9496   -2.5547   -2.4266 C.ar      1 <0>        -0.0990
     19 C15         3.2864   -2.8494   -2.2336 C.ar      1 <0>        -0.1206
     20 C16         3.6991   -4.1661   -2.1521 C.ar      1 <0>        -0.1140
     21 C17         2.7750   -5.1883   -2.2631 C.ar      1 <0>        -0.1202
     22 C18         1.4377   -4.8935   -2.4518 C.ar      1 <0>        -0.1037
     23 C19        -1.6695   -4.2383   -0.8401 C.ar      1 <0>         0.2224
     24 C20        -2.9488   -4.6455   -1.1979 C.ar      1 <0>        -0.1199
     25 C21        -3.5141   -5.7510   -0.5935 C.ar      1 <0>        -0.0461
     26 C22        -2.8084   -6.4525    0.3669 C.ar      1 <0>        -0.0516
     27 C23        -1.5350   -6.0497    0.7259 C.ar      1 <0>        -0.0469
     28 C24        -0.9613   -4.9486    0.1215 C.ar      1 <0>        -0.1177
     29 N4         -3.4177   -7.6370    1.0126 N.pl3     1 <0>         0.0329
     30 O2         -4.5309   -7.9902    0.7001 O.2       1 <0>        -0.1577
     31 O3         -2.8021   -8.2514    1.8524 O.3       1 <0>        -0.1574
     32 H1          0.4305    1.8811   -0.2291 H         1 <0>         0.0751
     33 H2         -0.6475    1.9750   -1.6423 H         1 <0>         0.0865
     34 H3         -1.2801    2.3245   -0.0157 H         1 <0>         0.1070
     35 H4         -0.2247   -0.5621   -2.2860 H         1 <0>         0.1669
     36 H5         -2.1370   -2.3258    1.1208 H         1 <0>         0.1539
     37 H6         -2.6300   -2.1839    3.3897 H         1 <0>         0.0696
     38 H7         -1.3118   -1.9566    2.2117 H         1 <0>         0.1195
     39 H8         -0.5171   -2.8802    4.4179 H         1 <0>         0.0766
     40 H9          0.2348   -1.3210    4.0008 H         1 <0>         0.0667
     41 H10        -2.1786   -1.6858    5.8342 H         1 <0>         0.0654
     42 H11        -0.5126   -1.3705    6.3749 H         1 <0>         0.0672
     43 H12        -1.8163    0.7286    6.3163 H         1 <0>         0.0783
     44 H13        -0.5171    0.7674    5.0994 H         1 <0>         0.0663
     45 H14        -2.5759    1.5842    4.0752 H         1 <0>         0.0945
     46 H15        -3.4553    0.1275    4.6062 H         1 <0>         0.0702
     47 H16        -0.9025   -4.0588   -3.3157 H         1 <0>         0.0843
     48 H17        -0.5213   -2.3201   -3.3012 H         1 <0>         0.0872
     49 H18         1.6272   -1.5259   -2.4904 H         1 <0>         0.1185
     50 H19         4.0083   -2.0508   -2.1469 H         1 <0>         0.1212
     51 H20         4.7435   -4.3964   -2.0020 H         1 <0>         0.1216
     52 H21         3.0975   -6.2170   -2.1997 H         1 <0>         0.1219
     53 H22         0.7153   -5.6920   -2.5348 H         1 <0>         0.1172
     54 H23        -3.5006   -4.0979   -1.9476 H         1 <0>         0.1492
     55 H24        -4.5086   -6.0679   -0.8709 H         1 <0>         0.1559
     56 H25        -0.9871   -6.5995    1.4768 H         1 <0>         0.1551
     57 H26         0.0349   -4.6373    0.3991 H         1 <0>         0.1474
@<TRIPOS>BOND
     1    1    2 1
     2    1   32 1
     3    1   33 1
     4    1   34 1
     5    2    6 1
     6    2    3 1
     7    3    4 2
     8    3   35 1
     9    4    5 1
    10    4   15 1
    11    5    6 2
    12    5   36 1
    13    6    7 1
    14    7    8 2
    15    7    9 am
    16    9   14 1
    17    9   10 1
    18   10   11 1
    19   10   37 1
    20   10   38 1
    21   11   12 1
    22   11   39 1
    23   11   40 1
    24   12   13 1
    25   12   41 1
    26   12   42 1
    27   13   14 1
    28   13   43 1
    29   13   44 1
    30   14   45 1
    31   14   46 1
    32   15   16 1
    33   15   23 1
    34   16   17 1
    35   16   47 1
    36   16   48 1
    37   17   22 ar
    38   17   18 ar
    39   18   19 ar
    40   18   49 1
    41   19   20 ar
    42   19   50 1
    43   20   21 ar
    44   20   51 1
    45   21   22 ar
    46   21   52 1
    47   22   53 1
    48   23   28 ar
    49   23   24 ar
    50   24   25 ar
    51   24   54 1
    52   25   26 ar
    53   25   55 1
    54   26   27 ar
    55   26   29 1
    56   27   28 ar
    57   27   56 1
    58   28   57 1
    59   29   30 2
    60   29   31 1
@<TRIPOS>MOLECULE
CHEMBL518945
   54    57     0     0     0
SMALL
USER_CHARGES

@<TRIPOS>ATOM
      1 C1         -0.7585    1.3096   -0.1790 C.3       1 <0>         0.0705
      2 N1         -0.6080   -0.1475   -0.1956 N.pl3     1 <0>        -0.4003
      3 C2         -0.3918   -0.9092   -1.3007 C.2       1 <0>        -0.0337
      4 C3         -0.3056   -2.2120   -0.9235 C.2       1 <0>         0.1085
      5 C4         -0.4739   -2.2665    0.4673 C.2       1 <0>        -0.1884
      6 C5         -0.6561   -0.9714    0.9054 C.2       1 <0>        -0.0175
      7 C6         -0.8657   -0.5488    2.2939 C.2       1 <0>         0.6034
      8 O1         -1.0979    0.6189    2.5462 O.2       1 <0>        -0.5456
      9 N2         -0.8013   -1.4537    3.2907 N.am      1 <0>        -0.6072
     10 C7         -0.6262   -2.9036    3.1217 C.3       1 <0>         0.0944
     11 C8         -0.6369   -3.5337    4.5304 C.3       1 <0>        -0.1357
     12 C9         -1.3834   -2.4718    5.3804 C.3       1 <0>        -0.1342
     13 C10        -0.8882   -1.1527    4.7313 C.3       1 <0>         0.1072
     14 N3         -0.0873   -3.3097   -1.7763 N.pl3     1 <0>        -0.5744
     15 C11         0.1608   -3.0906   -3.2034 C.3       1 <0>         0.1735
     16 C12         1.6414   -2.9359   -3.4379 C.ar      1 <0>        -0.1121
     17 C13         2.2240   -1.6838   -3.3754 C.ar      1 <0>        -0.0988
     18 C14         3.5821   -1.5419   -3.5906 C.ar      1 <0>        -0.1207
     19 C15         4.3577   -2.6521   -3.8677 C.ar      1 <0>        -0.1134
     20 C16         3.7752   -3.9043   -3.9294 C.ar      1 <0>        -0.1201
     21 C17         2.4179   -4.0467   -3.7100 C.ar      1 <0>        -0.1025
     22 C18        -0.1071   -4.6079   -1.2623 C.ar      1 <0>         0.2316
     23 C19        -1.1194   -5.4864   -1.6284 C.ar      1 <0>        -0.1331
     24 C20        -1.1357   -6.7697   -1.1185 C.ar      1 <0>        -0.0388
     25 C21        -0.1459   -7.1808   -0.2445 C.ar      1 <0>        -0.0613
     26 C22         0.8630   -6.3089    0.1224 C.ar      1 <0>        -0.0399
     27 C23         0.8886   -5.0260   -0.3880 C.ar      1 <0>        -0.1292
     28 N4         -0.1666   -8.5571    0.3000 N.pl3     1 <0>         0.0351
     29 O2         -1.0481   -9.3204   -0.0195 O.2       1 <0>        -0.1606
     30 O3          0.6979   -8.9180    1.0641 O.3       1 <0>        -0.1598
     31 H1          0.2018    1.7715    0.0505 H         1 <0>         0.0774
     32 H2         -1.1015    1.6507   -1.1558 H         1 <0>         0.0853
     33 H3         -1.4877    1.5909    0.5807 H         1 <0>         0.1011
     34 H4         -0.3035   -0.5399   -2.3118 H         1 <0>         0.1676
     35 H5         -0.4597   -3.1552    1.0808 H         1 <0>         0.1542
     36 H6         -1.4454   -3.3092    2.5280 H         1 <0>         0.0741
     37 H7          0.3258   -3.1075    2.6317 H         1 <0>         0.0757
     38 H8         -1.1822   -4.4775    4.5267 H         1 <0>         0.0853
     39 H9          0.3797   -3.6759    4.8970 H         1 <0>         0.0804
     40 H10        -2.4634   -2.5794    5.2795 H         1 <0>         0.0783
     41 H11        -1.0829   -2.5271    6.4267 H         1 <0>         0.0884
     42 H12         0.0922   -0.8798    5.1217 H         1 <0>         0.0723
     43 H13        -1.6048   -0.3508    4.9087 H         1 <0>         0.0825
     44 H14        -0.2099   -3.9436   -3.7718 H         1 <0>         0.0862
     45 H15        -0.3548   -2.1865   -3.5272 H         1 <0>         0.0877
     46 H16         1.6180   -0.8165   -3.1589 H         1 <0>         0.1186
     47 H17         4.0371   -0.5636   -3.5424 H         1 <0>         0.1217
     48 H18         5.4186   -2.5411   -4.0365 H         1 <0>         0.1220
     49 H19         4.3811   -4.7716   -4.1462 H         1 <0>         0.1222
     50 H20         1.9634   -5.0254   -3.7544 H         1 <0>         0.1173
     51 H21        -1.8929   -5.1659   -2.3106 H         1 <0>         0.1483
     52 H22        -1.9224   -7.4529   -1.4024 H         1 <0>         0.1554
     53 H23         1.6339   -6.6330    0.8057 H         1 <0>         0.1546
     54 H24         1.6793   -4.3471   -0.1046 H         1 <0>         0.1464
@<TRIPOS>BOND
     1    1    2 1
     2    1   31 1
     3    1   32 1
     4    1   33 1
     5    2    6 1
     6    2    3 1
     7    3    4 2
     8    3   34 1
     9    4    5 1
    10    4   14 1
    11    5    6 2
    12    5   35 1
    13    6    7 1
    14    7    8 2
    15    7    9 am
    16    9   13 1
    17    9   10 1
    18   10   11 1
    19   10   36 1
    20   10   37 1
    21   11   12 1
    22   11   38 1
    23   11   39 1
    24   12   13 1
    25   12   40 1
    26   12   41 1
    27   13   42 1
    28   13   43 1
    29   14   15 1
    30   14   22 1
    31   15   16 1
    32   15   44 1
    33   15   45 1
    34   16   21 ar
    35   16   17 ar
    36   17   18 ar
    37   17   46 1
    38   18   19 ar
    39   18   47 1
    40   19   20 ar
    41   19   48 1
    42   20   21 ar
    43   20   49 1
    44   21   50 1
    45   22   27 ar
    46   22   23 ar
    47   23   24 ar
    48   23   51 1
    49   24   25 ar
    50   24   52 1
    51   25   26 ar
    52   25   28 1
    53   26   27 ar
    54   26   53 1
    55   27   54 1
    56   28   29 2
    57   28   30 1
@<TRIPOS>MOLECULE
CHEMBL336169
   48    52     0     0     0
SMALL
USER_CHARGES

@<TRIPOS>ATOM
      1 C1         -0.0184    1.5050    0.0103 C.3       1 <0>        -0.1193
      2 C2          0.0021   -0.0041    0.0020 C.2       1 <0>        -0.0627
      3 C3          0.0012   -0.5990   -1.1897 C.2       1 <0>        -0.1632
      4 C4         -0.0627   -2.0882   -1.3594 C.3       1 <0>         0.2130
      5 N1          0.3265   -2.7742   -0.1292 N.pl3     1 <0>        -0.7339
      6 C5          0.0884   -2.2024    1.1150 C.ar      1 <0>         0.2261
      7 C6          0.0246   -0.7944    1.2385 C.ar      1 <0>        -0.0643
      8 C7          0.0552   -0.2661    2.5212 C.ar      1 <0>        -0.0255
      9 C8         -0.3511   -1.0914    3.6136 C.ar      1 <0>        -0.0931
     10 C9         -0.3828   -2.4639    3.4593 C.ar      1 <0>        -0.0510
     11 C10        -0.1056   -3.0139    2.2216 C.ar      1 <0>        -0.1787
     12 C11        -0.7301   -0.4121    4.8702 C.ar      1 <0>        -0.0659
     13 C12        -1.1410   -1.1437    5.9816 C.ar      1 <0>        -0.1174
     14 C13        -1.4930   -0.4884    7.1468 C.ar      1 <0>         0.0802
     15 C14        -1.4393    0.8951    7.2099 C.ar      1 <0>        -0.1221
     16 C15        -1.0307    1.6306    6.1144 C.ar      1 <0>        -0.1017
     17 C16        -0.6690    0.9869    4.9423 C.ar      1 <0>         0.1082
     18 O1         -0.2417    1.7129    3.8722 O.3       1 <0>        -0.2308
     19 C17         0.5287    1.0520    2.9560 C.2       1 <0>         0.1086
     20 C18         1.7163    1.5722    2.5534 C.2       1 <0>        -0.0847
     21 C19         2.1327    2.8935    3.0226 C.2       1 <0>         0.0207
     22 C20         3.2943    3.5339    2.6925 C.2       1 <0>        -0.1896
     23 C21         3.2802    4.7702    3.3661 C.2       1 <0>        -0.2141
     24 C22         2.1295    4.8278    4.0658 C.2       1 <0>        -0.0342
     25 O2          1.4356    3.6957    3.8521 O.3       1 <0>        -0.1562
     26 F1         -1.8876   -1.1973    8.2271 F         1 <0>        -0.1361
     27 C23         0.8804   -2.5062   -2.4940 C.3       1 <0>        -0.1548
     28 C24        -1.4933   -2.4955   -1.7316 C.3       1 <0>        -0.1607
     29 H1          1.0042    1.8823    0.0026 H         1 <0>         0.0727
     30 H2         -0.5456    1.8661   -0.8727 H         1 <0>         0.0689
     31 H3         -0.5286    1.8566    0.9071 H         1 <0>         0.0681
     32 H4          0.0512    0.0273   -2.0747 H         1 <0>         0.1285
     33 H5          0.7570   -3.6521   -0.1815 H         1 <0>         0.4055
     34 H6         -0.6213   -3.1044    4.2947 H         1 <0>         0.1339
     35 H7         -0.0431   -4.0874    2.1137 H         1 <0>         0.1310
     36 H8         -1.1811   -2.2223    5.9368 H         1 <0>         0.1428
     37 H9         -1.7146    1.4017    8.1240 H         1 <0>         0.1462
     38 H10        -0.9925    2.7081    6.1729 H         1 <0>         0.1466
     39 H11         2.3536    1.0104    1.8865 H         1 <0>         0.1675
     40 H12         4.0722    3.1633    2.0414 H         1 <0>         0.1503
     41 H13         4.0473    5.5296    3.3292 H         1 <0>         0.1501
     42 H14         1.8146    5.6498    4.6916 H         1 <0>         0.2032
     43 H15         1.8997   -2.2091   -2.2473 H         1 <0>         0.0636
     44 H16         0.8381   -3.5878   -2.6219 H         1 <0>         0.0636
     45 H17         0.5738   -2.0187   -3.4195 H         1 <0>         0.0744
     46 H18        -1.7782   -2.0095   -2.6648 H         1 <0>         0.0674
     47 H19        -1.5425   -3.5773   -1.8555 H         1 <0>         0.0617
     48 H20        -2.1761   -2.1891   -0.9392 H         1 <0>         0.0572
@<TRIPOS>BOND
     1    1    2 1
     2    1   29 1
     3    1   30 1
     4    1   31 1
     5    2    7 1
     6    2    3 2
     7    3    4 1
     8    3   32 1
     9    4    5 1
    10    4   27 1
    11    4   28 1
    12    5    6 1
    13    5   33 1
    14    6   11 ar
    15    6    7 ar
    16    7    8 ar
    17    8   19 1
    18    8    9 ar
    19    9   10 ar
    20    9   12 1
    21   10   11 ar
    22   10   34 1
    23   11   35 1
    24   12   17 ar
    25   12   13 ar
    26   13   14 ar
    27   13   36 1
    28   14   15 ar
    29   14   26 1
    30   15   16 ar
    31   15   37 1
    32   16   17 ar
    33   16   38 1
    34   17   18 1
    35   18   19 1
    36   19   20 2
    37   20   21 1
    38   20   39 1
    39   21   25 1
    40   21   22 2
    41   22   23 1
    42   22   40 1
    43   23   24 2
    44   23   41 1
    45   24   25 1
    46   24   42 1
    47   27   43 1
    48   27   44 1
    49   27   45 1
    50   28   46 1
    51   28   47 1
    52   28   48 1
@<TRIPOS>MOLECULE
CHEMBL162569
   33    35     0     0     0
SMALL
USER_CHARGES

@<TRIPOS>ATOM
      1 C1         -0.0187    1.5258    0.0104 C.3       1 <0>        -0.1452
      2 C2          0.0021   -0.0041    0.0020 C.3       1 <0>        -0.0516
      3 H1          0.4987   -0.3721   -0.8958 H         1 <0>         0.0961
      4 C3         -1.4057   -0.5518    0.0890 C.ar      1 <0>        -0.1767
      5 C4         -2.4695   -0.4046   -0.7525 C.ar      1 <0>         0.0017
      6 C5         -3.6914   -1.0193   -0.4519 C.ar      1 <0>        -0.1706
      7 C6         -4.8099   -0.8802   -1.3125 C.2       1 <0>        -0.0562
      8 C7         -5.9756   -1.4916   -0.9859 C.2       1 <0>        -0.1724
      9 C8         -6.0719   -2.2557    0.1953 C.2       1 <0>         0.5418
     10 N1         -5.0171   -2.3944    1.0199 N.am      1 <0>        -0.6242
     11 C9         -3.8129   -1.7883    0.7228 C.ar      1 <0>         0.2497
     12 C10        -2.7226   -1.9268    1.5661 C.ar      1 <0>        -0.2420
     13 C11        -1.5116   -1.3096    1.2542 C.ar      1 <0>         0.2685
     14 N2         -0.3138   -1.3277    1.9630 N.pl3     1 <0>        -0.7230
     15 C12         0.7045   -0.5380    1.2607 C.3       1 <0>         0.1412
     16 H2          1.5491   -1.1688    0.9832 H         1 <0>         0.0854
     17 C13         1.1747    0.6235    2.1386 C.3       1 <0>        -0.1674
     18 O1         -7.1270   -2.7988    0.4742 O.2       1 <0>        -0.5238
     19 C14        -4.7048   -0.0626   -2.5740 C.3       1 <0>         0.5057
     20 F1         -5.9325   -0.0796   -3.2445 F         1 <0>        -0.1683
     21 F2         -4.3693    1.2560   -2.2486 F         1 <0>        -0.1677
     22 F3         -3.7148   -0.6053   -3.4002 F         1 <0>        -0.1677
     23 H3          1.0039    1.9031    0.0027 H         1 <0>         0.0664
     24 H4         -0.5459    1.8868   -0.8726 H         1 <0>         0.0615
     25 H5         -0.5289    1.8773    0.9072 H         1 <0>         0.0627
     26 H6         -2.3694    0.1865   -1.6508 H         1 <0>         0.1341
     27 H7         -6.8343   -1.3925   -1.6333 H         1 <0>         0.1682
     28 H8         -2.8105   -2.5151    2.4675 H         1 <0>         0.1349
     29 H9         -0.1718   -1.7958    2.8006 H         1 <0>         0.4165
     30 H10         0.3155    1.2237    2.4379 H         1 <0>         0.0668
     31 H11         1.6703    0.2305    3.0263 H         1 <0>         0.0585
     32 H12         1.8733    1.2437    1.5771 H         1 <0>         0.0765
     33 H13        -5.1037   -2.9238    1.8282 H         1 <0>         0.4204
@<TRIPOS>BOND
     1    1    2 1
     2    1   23 1
     3    1   24 1
     4    1   25 1
     5    2    3 1
     6    2   15 1
     7    2    4 1
     8    4   13 ar
     9    4    5 ar
    10    5    6 ar
    11    5   26 1
    12    6   11 ar
    13    6    7 1
    14    7    8 2
    15    7   19 1
    16    8    9 1
    17    8   27 1
    18    9   10 am
    19    9   18 2
    20   10   11 1
    21   10   33 1
    22   11   12 ar
    23   12   13 ar
    24   12   28 1
    25   13   14 1
    26   14   15 1
    27   14   29 1
    28   15   16 1
    29   15   17 1
    30   17   30 1
    31   17   31 1
    32   17   32 1
    33   19   20 1
    34   19   21 1
    35   19   22 1
@<TRIPOS>MOLECULE
CHEMBL367375
   43    48     0     0     0
SMALL
USER_CHARGES

@<TRIPOS>ATOM
      1 C1          0.0219    1.2850   -0.7867 C.ar      1 <0>        -0.0948
      2 C2          1.2071    2.0180   -0.7973 C.ar      1 <0>        -0.0854
      3 C3          2.4043    1.4175   -0.5558 C.ar      1 <0>        -0.1142
      4 C4          2.4496    0.0376   -0.2908 C.ar      1 <0>        -0.0081
      5 C5          1.2440   -0.7065   -0.2798 C.ar      1 <0>        -0.0377
      6 C6          0.0279   -0.0527   -0.5339 C.ar      1 <0>        -0.0992
      7 C7          1.2891   -2.0911   -0.0140 C.ar      1 <0>         0.1774
      8 C8          2.5035   -2.6940    0.2298 C.ar      1 <0>        -0.1006
      9 C9          3.6815   -1.9530    0.2165 C.ar      1 <0>        -0.0281
     10 C10         3.6676   -0.6153   -0.0367 C.ar      1 <0>        -0.0215
     11 N1          4.9345    0.1504   -0.0453 N.pl3     1 <0>         0.0301
     12 O1          5.9381   -0.3465   -0.5008 O.2       1 <0>        -0.1417
     13 O2          4.9656    1.2727    0.4033 O.3       1 <0>        -0.1450
     14 N2          0.1107   -2.8453    0.0022 N.am      1 <0>        -0.5361
     15 C11        -0.3792   -3.4482   -1.0885 C.2       1 <0>         0.5341
     16 O3          0.1206   -3.4179   -2.1925 O.2       1 <0>        -0.4563
     17 C12        -1.6561   -4.1738   -0.7229 C.3       1 <0>        -0.1070
     18 H1         -2.5011   -3.7814   -1.2886 H         1 <0>         0.1373
     19 C13        -1.8210   -3.8838    0.7784 C.3       1 <0>        -0.1069
     20 H2         -2.7490   -3.3448    0.9694 H         1 <0>         0.1376
     21 C14        -0.6173   -3.0286    1.1111 C.2       1 <0>         0.5346
     22 O4         -0.3555   -2.5791    2.2061 O.2       1 <0>        -0.4562
     23 C15        -1.7678   -5.1816    1.5956 C.3       1 <0>        -0.0176
     24 C16        -0.4789   -5.8970    1.2072 C.2       1 <0>        -0.1629
     25 C17        -0.3361   -6.1472   -0.0885 C.2       1 <0>        -0.1646
     26 C18        -1.4755   -5.6749   -0.9859 C.3       1 <0>        -0.0182
     27 C19        -2.7411   -6.3855   -0.4355 C.3       1 <0>        -0.1496
     28 H3         -3.6156   -6.4188   -1.0853 H         1 <0>         0.1223
     29 C20        -2.9260   -6.0825    1.0892 C.3       1 <0>        -0.1617
     30 H4         -3.9153   -5.9059    1.5113 H         1 <0>         0.1295
     31 C21        -2.4979   -7.5139    0.5686 C.3       1 <0>        -0.1515
     32 H5         -0.9155    1.7863   -0.9774 H         1 <0>         0.1381
     33 H6          1.1751    3.0782   -1.0005 H         1 <0>         0.1407
     34 H7          3.3149    1.9980   -0.5679 H         1 <0>         0.1522
     35 H8         -0.8983   -0.6082   -0.5285 H         1 <0>         0.1279
     36 H9          2.5418   -3.7538    0.4341 H         1 <0>         0.1523
     37 H10         4.6221   -2.4471    0.4105 H         1 <0>         0.1602
     38 H11        -1.8350   -4.9928    2.6670 H         1 <0>         0.1116
     39 H12         0.2665   -6.1802    1.9356 H         1 <0>         0.1297
     40 H13         0.5335   -6.6481   -0.4876 H         1 <0>         0.1285
     41 H14        -1.3022   -5.8869   -2.0409 H         1 <0>         0.1138
     42 H15        -3.2496   -8.3008    0.6306 H         1 <0>         0.0985
     43 H16        -1.4680   -7.8373    0.7200 H         1 <0>         0.1087
@<TRIPOS>BOND
     1    1    6 ar
     2    1    2 ar
     3    1   32 1
     4    2    3 ar
     5    2   33 1
     6    3    4 ar
     7    3   34 1
     8    4   10 ar
     9    4    5 ar
    10    5    6 ar
    11    5    7 ar
    12    6   35 1
    13    7    8 ar
    14    7   14 1
    15    8    9 ar
    16    8   36 1
    17    9   10 ar
    18    9   37 1
    19   10   11 1
    20   11   12 2
    21   11   13 1
    22   14   21 am
    23   14   15 am
    24   15   16 2
    25   15   17 1
    26   17   18 1
    27   17   26 1
    28   17   19 1
    29   19   20 1
    30   19   21 1
    31   19   23 1
    32   21   22 2
    33   23   29 1
    34   23   24 1
    35   23   38 1
    36   24   25 2
    37   24   39 1
    38   25   26 1
    39   25   40 1
    40   26   27 1
    41   26   41 1
    42   27   28 1
    43   27   31 1
    44   27   29 1
    45   29   30 1
    46   29   31 1
    47   31   42 1
    48   31   43 1
@<TRIPOS>MOLECULE
CHEMBL367375__1
   43    48     0     0     0
SMALL
USER_CHARGES

@<TRIPOS>ATOM
      1 C1          0.0219    1.2850   -0.7867 C.ar      1 <0>        -0.0943
      2 C2          1.2071    2.0180   -0.7973 C.ar      1 <0>        -0.0862
      3 C3          2.4043    1.4175   -0.5558 C.ar      1 <0>        -0.1132
      4 C4          2.4496    0.0376   -0.2908 C.ar      1 <0>        -0.0083
      5 C5          1.2440   -0.7065   -0.2798 C.ar      1 <0>        -0.0386
      6 C6          0.0279   -0.0527   -0.5339 C.ar      1 <0>        -0.1020
      7 C7          1.2891   -2.0911   -0.0140 C.ar      1 <0>         0.1768
      8 C8          2.5035   -2.6940    0.2298 C.ar      1 <0>        -0.0994
      9 C9          3.6815   -1.9530    0.2165 C.ar      1 <0>        -0.0274
     10 C10         3.6676   -0.6153   -0.0367 C.ar      1 <0>        -0.0214
     11 N1          4.9345    0.1504   -0.0453 N.pl3     1 <0>         0.0300
     12 O1          5.9381   -0.3465   -0.5008 O.2       1 <0>        -0.1412
     13 O2          4.9656    1.2727    0.4033 O.3       1 <0>        -0.1451
     14 N2          0.1131   -2.8438    0.0022 N.am      1 <0>        -0.5554
     15 C11        -0.3615   -3.4843   -1.0811 C.2       1 <0>         0.5428
     16 O3          0.2416   -3.6435   -2.1190 O.2       1 <0>        -0.4477
     17 C12        -1.7664   -3.9413   -0.7880 C.3       1 <0>        -0.1143
     18 H1         -2.4837   -3.3389   -1.3659 H         1 <0>         0.1377
     19 C13        -1.9426   -3.6390    0.7121 C.3       1 <0>        -0.1144
     20 H2         -2.7465   -2.8961    0.8377 H         1 <0>         0.1373
     21 C14        -0.6237   -3.0327    1.1111 C.2       1 <0>         0.5428
     22 O4         -0.2727   -2.7563    2.2371 O.2       1 <0>        -0.4482
     23 C15        -2.2880   -4.9084    1.4798 C.3       1 <0>        -0.0134
     24 C16        -3.5376   -5.4734    0.7871 C.2       1 <0>        -0.1510
     25 C17        -3.3855   -5.7347   -0.5063 C.2       1 <0>        -0.1509
     26 C18        -1.9891   -5.4230   -1.0653 C.3       1 <0>        -0.0138
     27 C19        -1.0362   -6.3055   -0.2344 C.3       1 <0>        -0.1546
     28 H3         -0.9559   -7.3581   -0.5508 H         1 <0>         0.1239
     29 C20        -1.2158   -5.9994    1.2859 C.3       1 <0>        -0.1550
     30 H4         -1.2564   -6.8462    1.9899 H         1 <0>         0.1239
     31 C21         0.0921   -5.6972    0.5777 C.3       1 <0>        -0.1757
     32 H5         -0.9155    1.7863   -0.9774 H         1 <0>         0.1383
     33 H6          1.1751    3.0782   -1.0005 H         1 <0>         0.1407
     34 H7          3.3149    1.9980   -0.5679 H         1 <0>         0.1523
     35 H8         -0.8983   -0.6082   -0.5285 H         1 <0>         0.1293
     36 H9          2.5418   -3.7538    0.4341 H         1 <0>         0.1522
     37 H10         4.6221   -2.4471    0.4105 H         1 <0>         0.1604
     38 H11        -2.4896   -4.7106    2.5370 H         1 <0>         0.1105
     39 H12        -4.4583   -5.6407    1.3178 H         1 <0>         0.1330
     40 H13        -4.1720   -6.1333   -1.1230 H         1 <0>         0.1330
     41 H14        -1.9406   -5.6550   -2.1336 H         1 <0>         0.1105
     42 H15         0.9389   -6.3727    0.8137 H         1 <0>         0.1028
     43 H16         0.4140   -4.6903    0.4147 H         1 <0>         0.0934
@<TRIPOS>BOND
     1    1    6 ar
     2    1    2 ar
     3    1   32 1
     4    2    3 ar
     5    2   33 1
     6    3    4 ar
     7    3   34 1
     8    4   10 ar
     9    4    5 ar
    10    5    6 ar
    11    5    7 ar
    12    6   35 1
    13    7    8 ar
    14    7   14 1
    15    8    9 ar
    16    8   36 1
    17    9   10 ar
    18    9   37 1
    19   10   11 1
    20   11   12 2
    21   11   13 1
    22   14   21 am
    23   14   15 am
    24   15   16 2
    25   15   17 1
    26   17   18 1
    27   17   26 1
    28   17   19 1
    29   19   20 1
    30   19   21 1
    31   19   23 1
    32   21   22 2
    33   23   29 1
    34   23   24 1
    35   23   38 1
    36   24   25 2
    37   24   39 1
    38   25   26 1
    39   25   40 1
    40   26   27 1
    41   26   41 1
    42   27   28 1
    43   27   31 1
    44   27   29 1
    45   29   30 1
    46   29   31 1
    47   31   42 1
    48   31   43 1
@<TRIPOS>MOLECULE
CHEMBL445661
   37    40     0     0     0
SMALL
USER_CHARGES

@<TRIPOS>ATOM
      1 C1         -0.0178    1.4608    0.0101 C.3       1 <0>         0.0729
      2 N1          0.0021   -0.0041    0.0020 N.pl3     1 <0>        -0.4669
      3 C2          0.0081   -0.7902   -1.1179 C.ar      1 <0>         0.1153
      4 C3          0.0045   -0.4721   -2.4734 C.ar      1 <0>        -0.1576
      5 C4          0.0144   -1.5337   -3.3690 C.ar      1 <0>         0.1249
      6 C5          0.0272   -2.8577   -2.9457 C.ar      1 <0>        -0.1730
      7 C6          0.0309   -3.1974   -1.6165 C.ar      1 <0>        -0.0472
      8 C7          0.0206   -2.1459   -0.6921 C.ar      1 <0>        -0.1072
      9 C8          0.0199   -2.1155    0.7530 C.2       1 <0>        -0.1411
     10 C9          0.0235   -0.8037    1.1152 C.2       1 <0>         0.1027
     11 C10         0.0588   -0.4247    2.5466 C.ar      1 <0>        -0.0307
     12 C11        -0.7661    0.5623    3.0694 C.ar      1 <0>        -0.1057
     13 C12        -0.7297    0.8276    4.4254 C.ar      1 <0>        -0.1212
     14 C13         0.1172    0.1087    5.2506 C.ar      1 <0>        -0.1101
     15 C14         0.9570   -0.8599    4.7274 C.ar      1 <0>        -0.1131
     16 C15         0.9547   -1.1102    3.3729 C.ar      1 <0>        -0.0521
     17 C16         1.9604   -2.0265    2.7439 C.3       1 <0>        -0.0842
     18 C17         1.3979   -3.4082    2.3909 C.3       1 <0>        -0.1044
     19 C18         0.0120   -3.2485    1.7361 C.3       1 <0>        -0.0476
     20 O1          0.0110   -1.2695   -4.7023 O.3       1 <0>        -0.5008
     21 H1          1.0048    1.8381    0.0023 H         1 <0>         0.0719
     22 H2         -0.5450    1.8219   -0.8730 H         1 <0>         0.0841
     23 H3         -0.5280    1.8123    0.9069 H         1 <0>         0.0853
     24 H4         -0.0052    0.5531   -2.8129 H         1 <0>         0.1319
     25 H5          0.0348   -3.6436   -3.6864 H         1 <0>         0.1259
     26 H6          0.0407   -4.2292   -1.2976 H         1 <0>         0.1350
     27 H7         -1.4299    1.1171    2.4229 H         1 <0>         0.1219
     28 H8         -1.3629    1.5972    4.8415 H         1 <0>         0.1259
     29 H9          0.1235    0.3053    6.3126 H         1 <0>         0.1251
     30 H10         1.6120   -1.4181    5.3799 H         1 <0>         0.1279
     31 H11         2.3352   -1.5597    1.8330 H         1 <0>         0.0718
     32 H12         2.7939   -2.1555    3.4342 H         1 <0>         0.0703
     33 H13         2.0737   -3.9092    1.6978 H         1 <0>         0.0705
     34 H14         1.3016   -4.0039    3.2986 H         1 <0>         0.0684
     35 H15        -0.7353   -3.0508    2.5046 H         1 <0>         0.0705
     36 H16        -0.2450   -4.1717    1.2167 H         1 <0>         0.0712
     37 H17         0.8934   -1.1844   -5.0886 H         1 <0>         0.3896
@<TRIPOS>BOND
     1    1    2 1
     2    1   21 1
     3    1   22 1
     4    1   23 1
     5    2   10 1
     6    2    3 1
     7    3    8 ar
     8    3    4 ar
     9    4    5 ar
    10    4   24 1
    11    5    6 ar
    12    5   20 1
    13    6    7 ar
    14    6   25 1
    15    7    8 ar
    16    7   26 1
    17    8    9 1
    18    9   19 1
    19    9   10 2
    20   10   11 1
    21   11   16 ar
    22   11   12 ar
    23   12   13 ar
    24   12   27 1
    25   13   14 ar
    26   13   28 1
    27   14   15 ar
    28   14   29 1
    29   15   16 ar
    30   15   30 1
    31   16   17 1
    32   17   18 1
    33   17   31 1
    34   17   32 1
    35   18   19 1
    36   18   33 1
    37   18   34 1
    38   19   35 1
    39   19   36 1
    40   20   37 1
@<TRIPOS>MOLECULE
CHEMBL522432
   43    46     0     0     0
SMALL
USER_CHARGES

@<TRIPOS>ATOM
      1 C1         -1.7809    1.9077   -0.1783 C.3       1 <0>        -0.1900
      2 C2         -1.2493    0.4803   -0.0339 C.3       1 <0>         0.2224
      3 C3         -2.3991   -0.4677   -0.1798 C.ar      1 <0>        -0.1316
      4 C4         -2.6225   -0.9587   -1.4610 C.ar      1 <0>        -0.0509
      5 C5         -3.6590   -1.8490   -1.7207 C.ar      1 <0>        -0.0465
      6 C6         -4.4877   -2.2538   -0.6710 C.ar      1 <0>        -0.0848
      7 C7         -4.2661   -1.7668    0.5903 C.ar      1 <0>        -0.1566
      8 C8         -3.2202   -0.8646    0.8578 C.ar      1 <0>         0.1904
      9 N1         -3.1239   -0.4537    2.1679 N.am      1 <0>        -0.6462
     10 C9         -2.2497    0.2263    2.8605 C.2       1 <0>         0.4966
     11 O1         -2.3835    0.2207    4.0660 O.2       1 <0>        -0.5281
     12 C10        -1.1040    1.0078    2.3157 C.3       1 <0>         0.0467
     13 O2         -0.5547    0.3901    1.1742 O.3       1 <0>        -0.3475
     14 C11        -3.8813   -2.3595   -3.0887 C.2       1 <0>         0.0979
     15 C12        -3.4447   -1.7649   -4.2527 C.2       1 <0>        -0.1778
     16 C13        -3.8613   -2.5629   -5.3175 C.2       1 <0>        -0.1058
     17 C14        -4.5485   -3.6366   -4.7867 C.2       1 <0>         0.0545
     18 N2         -4.5500   -3.5053   -3.4162 N.pl3     1 <0>        -0.4153
     19 C15        -5.1681   -4.4358   -2.4683 C.3       1 <0>         0.0557
     20 C16        -5.1488   -4.7027   -5.5308 C.1       1 <0>         0.2768
     21 N3         -5.6250   -5.5484   -6.1211 N.1       1 <0>        -0.4041
     22 C17        -0.2802    0.2215   -1.1586 C.2       1 <0>        -0.1044
     23 C18         0.7249   -0.7167   -1.0166 C.2       1 <0>        -0.1368
     24 C19         1.5799   -0.9252   -2.0475 C.2       1 <0>        -0.1691
     25 S1          0.9715    0.2246   -3.2702 S.3       1 <0>         0.0548
     26 C20        -0.3846    0.9014   -2.3266 C.2       1 <0>        -0.1757
     27 H1         -0.9460    2.6085   -0.1744 H         1 <0>         0.0802
     28 H2         -2.3273    1.9988   -1.1171 H         1 <0>         0.0808
     29 H3         -2.4481    2.1329    0.6537 H         1 <0>         0.0650
     30 H4         -1.9793   -0.6435   -2.2693 H         1 <0>         0.1444
     31 H5         -5.2971   -2.9454   -0.8526 H         1 <0>         0.1350
     32 H6         -4.9094   -2.0828    1.3982 H         1 <0>         0.1336
     33 H7         -3.8832   -0.7348    2.7020 H         1 <0>         0.4009
     34 H8         -1.4489    2.0068    2.0488 H         1 <0>         0.0988
     35 H9         -0.3330    1.0911    3.0817 H         1 <0>         0.1436
     36 H10        -2.8814   -0.8464   -4.3268 H         1 <0>         0.1512
     37 H11        -3.6801   -2.3753   -6.3655 H         1 <0>         0.1544
     38 H12        -6.1678   -4.0841   -2.2135 H         1 <0>         0.0856
     39 H13        -5.2353   -5.4248   -2.9215 H         1 <0>         0.0882
     40 H14        -4.5609   -4.4907   -1.5648 H         1 <0>         0.0975
     41 H15         0.8276   -1.2751   -0.0979 H         1 <0>         0.1384
     42 H16         2.4132   -1.6092   -2.1123 H         1 <0>         0.1871
     43 H17        -1.1014    1.6571   -2.6120 H         1 <0>         0.1903
@<TRIPOS>BOND
     1    1    2 1
     2    1   27 1
     3    1   28 1
     4    1   29 1
     5    2   13 1
     6    2    3 1
     7    2   22 1
     8    3    8 ar
     9    3    4 ar
    10    4    5 ar
    11    4   30 1
    12    5    6 ar
    13    5   14 1
    14    6    7 ar
    15    6   31 1
    16    7    8 ar
    17    7   32 1
    18    8    9 1
    19    9   10 am
    20    9   33 1
    21   10   11 2
    22   10   12 1
    23   12   13 1
    24   12   34 1
    25   12   35 1
    26   14   18 1
    27   14   15 2
    28   15   16 1
    29   15   36 1
    30   16   17 2
    31   16   37 1
    32   17   18 1
    33   17   20 1
    34   18   19 1
    35   19   38 1
    36   19   39 1
    37   19   40 1
    38   20   21 3
    39   22   26 2
    40   22   23 1
    41   23   24 2
    42   23   41 1
    43   24   25 1
    44   24   42 1
    45   25   26 1
    46   26   43 1
@<TRIPOS>MOLECULE
CHEMBL522432__1
   43    46     0     0     0
SMALL
USER_CHARGES

@<TRIPOS>ATOM
      1 C1          0.3407    0.1695    0.2022 C.3       1 <0>        -0.1899
      2 C2          0.3138   -1.3102   -0.1859 C.3       1 <0>         0.2225
      3 C3          0.8174   -1.4382   -1.5902 C.ar      1 <0>        -0.1314
      4 C4         -0.1523   -1.4277   -2.5863 C.ar      1 <0>        -0.0515
      5 C5          0.1927   -1.5421   -3.9288 C.ar      1 <0>        -0.0461
      6 C6          1.5399   -1.6705   -4.2768 C.ar      1 <0>        -0.0856
      7 C7          2.4934   -1.6796   -3.2929 C.ar      1 <0>        -0.1564
      8 C8          2.1497   -1.5614   -1.9337 C.ar      1 <0>         0.1904
      9 N1          3.2123   -1.5762   -1.0591 N.am      1 <0>        -0.6462
     10 C9          3.3388   -1.6446    0.2393 C.2       1 <0>         0.4966
     11 O1          4.4536   -1.8518    0.6698 O.2       1 <0>        -0.5280
     12 C10         2.2486   -1.4928    1.2436 C.3       1 <0>         0.0468
     13 O2          1.0338   -2.0287    0.7710 O.3       1 <0>        -0.3473
     14 C11        -0.8515   -1.5283   -4.9732 C.2       1 <0>         0.0973
     15 C12        -2.1886   -1.8012   -4.7810 C.2       1 <0>        -0.1772
     16 C13        -2.8268   -1.6798   -6.0146 C.2       1 <0>        -0.1057
     17 C14        -1.8673   -1.3335   -6.9454 C.2       1 <0>         0.0545
     18 N2         -0.6581   -1.2372   -6.2942 N.pl3     1 <0>        -0.4155
     19 C15         0.6218   -0.8855   -6.9142 C.3       1 <0>         0.0556
     20 C16        -2.0917   -1.1081   -8.3416 C.1       1 <0>         0.2768
     21 N3         -2.2698   -0.9292   -9.4492 N.1       1 <0>        -0.4041
     22 C17        -1.1175   -1.7806   -0.1543 C.2       1 <0>        -0.1049
     23 C18        -1.4143   -3.1087    0.0877 C.2       1 <0>        -0.1362
     24 C19        -2.7122   -3.4989    0.1093 C.2       1 <0>        -0.1689
     25 S1         -3.5645   -1.9649   -0.2190 S.3       1 <0>         0.0535
     26 C20        -2.1335   -0.9065   -0.3573 C.2       1 <0>        -0.1749
     27 H1          1.3729    0.5185    0.2326 H         1 <0>         0.0648
     28 H2         -0.2171    0.7484   -0.5339 H         1 <0>         0.0803
     29 H3         -0.1146    0.2958    1.1845 H         1 <0>         0.0802
     30 H4         -1.1924   -1.3287   -2.3128 H         1 <0>         0.1445
     31 H5          1.8275   -1.7623   -5.3138 H         1 <0>         0.1353
     32 H6          3.5332   -1.7798   -3.5671 H         1 <0>         0.1336
     33 H7          4.0678   -1.5238   -1.5132 H         1 <0>         0.4009
     34 H8          2.5337   -2.0098    2.1599 H         1 <0>         0.1438
     35 H9          2.1099   -0.4339    1.4616 H         1 <0>         0.0986
     36 H10        -2.6575   -2.0620   -3.8437 H         1 <0>         0.1515
     37 H11        -3.8789   -1.8295   -6.2071 H         1 <0>         0.1544
     38 H12         1.1651   -1.7959   -7.1675 H         1 <0>         0.0856
     39 H13         0.4400   -0.3069   -7.8199 H         1 <0>         0.0883
     40 H14         1.2126   -0.2921   -6.2164 H         1 <0>         0.0977
     41 H15        -0.6238   -3.8249    0.2566 H         1 <0>         0.1392
     42 H16        -3.1239   -4.4826    0.2804 H         1 <0>         0.1876
     43 H17        -2.0888    0.1547   -0.5529 H         1 <0>         0.1896
@<TRIPOS>BOND
     1    1    2 1
     2    1   27 1
     3    1   28 1
     4    1   29 1
     5    2   13 1
     6    2    3 1
     7    2   22 1
     8    3    8 ar
     9    3    4 ar
    10    4    5 ar
    11    4   30 1
    12    5    6 ar
    13    5   14 1
    14    6    7 ar
    15    6   31 1
    16    7    8 ar
    17    7   32 1
    18    8    9 1
    19    9   10 am
    20    9   33 1
    21   10   11 2
    22   10   12 1
    23   12   13 1
    24   12   34 1
    25   12   35 1
    26   14   18 1
    27   14   15 2
    28   15   16 1
    29   15   36 1
    30   16   17 2
    31   16   37 1
    32   17   18 1
    33   17   20 1
    34   18   19 1
    35   19   38 1
    36   19   39 1
    37   19   40 1
    38   20   21 3
    39   22   26 2
    40   22   23 1
    41   23   24 2
    42   23   41 1
    43   24   25 1
    44   24   42 1
    45   25   26 1
    46   26   43 1
@<TRIPOS>MOLECULE
CHEMBL389367
   38    40     0     0     0
SMALL
USER_CHARGES

@<TRIPOS>ATOM
      1 C1          6.9673    0.6615   -2.4091 C.ar      1 <0>        -0.1173
      2 C2          6.6978   -0.6911   -2.3157 C.ar      1 <0>        -0.1191
      3 C3          5.6380   -1.1331   -1.5460 C.ar      1 <0>        -0.1134
      4 C4          4.8482   -0.2226   -0.8693 C.ar      1 <0>        -0.0838
      5 C5          5.1183    1.1299   -0.9619 C.ar      1 <0>        -0.0993
      6 C6          6.1772    1.5721   -1.7328 C.ar      1 <0>        -0.1192
      7 C7          3.6923   -0.7044   -0.0309 C.3       1 <0>         0.0668
      8 N1          4.1518   -0.9524    1.3379 N.2       1 <0>        -0.4878
      9 C8          4.1463   -2.1569    1.8147 C.2       1 <0>         0.1879
     10 C9          4.4822   -2.4291    3.2663 C.3       1 <0>        -0.0814
     11 C10         3.4784   -3.4588    3.7920 C.3       1 <0>         0.1537
     12 C11         3.5709   -4.7458    2.9871 C.3       1 <0>        -0.0376
     13 C12         3.5492   -4.4893    1.5108 C.2       1 <0>        -0.0980
     14 C13         3.8072   -3.3130    0.9673 C.2       1 <0>        -0.1698
     15 C14         2.4438   -5.6762    3.3543 C.2       1 <0>        -0.1597
     16 C15         1.2591   -5.1861    3.7047 C.2       1 <0>        -0.0943
     17 C16         1.0578   -3.7296    3.7602 C.2       1 <0>         0.5520
     18 O1         -0.0662   -3.2696    3.8240 O.2       1 <0>        -0.5142
     19 N2          2.1258   -2.9084    3.7403 N.am      1 <0>        -0.7132
     20 C17         2.6604   -7.1672    3.3236 C.3       1 <0>         0.5048
     21 F1          1.4805   -7.8177    3.7002 F         1 <0>        -0.1711
     22 F2          3.0168   -7.5601    2.0290 F         1 <0>        -0.1705
     23 F3          3.6851   -7.5079    4.2130 F         1 <0>        -0.1688
     24 H1          7.7980    1.0065   -3.0069 H         1 <0>         0.1232
     25 H2          7.3148   -1.4025   -2.8444 H         1 <0>         0.1231
     26 H3          5.4270   -2.1898   -1.4736 H         1 <0>         0.1165
     27 H4          4.5010    1.8414   -0.4335 H         1 <0>         0.1238
     28 H5          6.3880    2.6288   -1.8055 H         1 <0>         0.1243
     29 H6          2.9103    0.0548   -0.0197 H         1 <0>         0.0993
     30 H7          3.2964   -1.6276   -0.4541 H         1 <0>         0.0614
     31 H8          5.4940   -2.8271    3.3430 H         1 <0>         0.1135
     32 H9          3.7235   -3.6898    4.8286 H         1 <0>         0.0986
     33 H10         4.5093   -5.2411    3.2365 H         1 <0>         0.1263
     34 H11         3.3048   -5.3115    0.8546 H         1 <0>         0.1258
     35 H12         3.7729   -3.2001   -0.1063 H         1 <0>         0.1321
     36 H13         0.4467   -5.8549    3.9476 H         1 <0>         0.1663
     37 H14         1.9963   -1.9484    3.6914 H         1 <0>         0.4134
     38 H15         4.4023   -1.5076    3.8430 H         1 <0>         0.1058
@<TRIPOS>BOND
     1    1    6 ar
     2    1    2 ar
     3    1   24 1
     4    2    3 ar
     5    2   25 1
     6    3    4 ar
     7    3   26 1
     8    4    5 ar
     9    4    7 1
    10    5    6 ar
    11    5   27 1
    12    6   28 1
    13    7    8 1
    14    7   29 1
    15    7   30 1
    16    8    9 2
    17    9   14 1
    18    9   10 1
    19   10   11 1
    20   10   31 1
    21   10   38 1
    22   11   19 1
    23   11   12 1
    24   11   32 1
    25   12   13 1
    26   12   15 1
    27   12   33 1
    28   13   14 2
    29   13   34 1
    30   14   35 1
    31   15   16 2
    32   15   20 1
    33   16   17 1
    34   16   36 1
    35   17   18 2
    36   17   19 am
    37   19   37 1
    38   20   21 1
    39   20   22 1
    40   20   23 1
@<TRIPOS>MOLECULE
CHEMBL389367__1
   38    40     0     0     0
SMALL
USER_CHARGES

@<TRIPOS>ATOM
      1 C1          6.9588    0.6531   -2.4191 C.ar      1 <0>        -0.1169
      2 C2          6.6862   -0.6988   -2.3243 C.ar      1 <0>        -0.1192
      3 C3          5.6280   -1.1379   -1.5508 C.ar      1 <0>        -0.1124
      4 C4          4.8426   -0.2252   -0.8719 C.ar      1 <0>        -0.0844
      5 C5          5.1158    1.1267   -0.9660 C.ar      1 <0>        -0.0992
      6 C6          6.1731    1.5659   -1.7405 C.ar      1 <0>        -0.1197
      7 C7          3.6884   -0.7038   -0.0295 C.3       1 <0>         0.0649
      8 N1          4.1518   -0.9524    1.3379 N.2       1 <0>        -0.4847
      9 C8          4.1463   -2.1569    1.8147 C.2       1 <0>         0.1909
     10 C9          4.4845   -2.4184    3.2709 C.3       1 <0>        -0.0767
     11 C10         5.3104   -3.7063    3.3051 C.3       1 <0>         0.1511
     12 C11         4.4523   -4.8529    2.7721 C.3       1 <0>        -0.0423
     13 C12         3.9595   -4.5516    1.3930 C.2       1 <0>        -0.0984
     14 C13         3.8059   -3.3055    0.9591 C.2       1 <0>        -0.1719
     15 C14         5.2440   -6.1299    2.8306 C.2       1 <0>        -0.1595
     16 C15         6.0376   -6.3297    3.8888 C.2       1 <0>        -0.0996
     17 C16         6.0909   -5.3052    4.9483 C.2       1 <0>         0.5524
     18 O1          6.4318   -5.6081    6.0757 O.2       1 <0>        -0.5091
     19 N2          5.7585   -4.0257    4.6580 N.am      1 <0>        -0.7170
     20 C17         5.1466   -7.1542    1.7295 C.3       1 <0>         0.5073
     21 F1          5.9777   -8.2395    2.0273 F         1 <0>        -0.1707
     22 F2          3.8238   -7.5962    1.6194 F         1 <0>        -0.1691
     23 F3          5.5479   -6.5778    0.5196 F         1 <0>        -0.1675
     24 H1          7.7883    0.9959   -3.0198 H         1 <0>         0.1231
     25 H2          7.2998   -1.4119   -2.8547 H         1 <0>         0.1232
     26 H3          5.4146   -2.1941   -1.4773 H         1 <0>         0.1178
     27 H4          4.5020    1.8398   -0.4358 H         1 <0>         0.1239
     28 H5          6.3863    2.6221   -1.8144 H         1 <0>         0.1241
     29 H6          2.9082    0.0573   -0.0159 H         1 <0>         0.1000
     30 H7          3.2888   -1.6262   -0.4510 H         1 <0>         0.0643
     31 H8          5.0682   -1.5902    3.6728 H         1 <0>         0.1058
     32 H9          6.1789   -3.5934    2.6563 H         1 <0>         0.0900
     33 H10         3.5886   -4.9663    3.4273 H         1 <0>         0.1234
     34 H11         3.7171   -5.3706    0.7320 H         1 <0>         0.1301
     35 H12         3.4298   -3.1319   -0.0383 H         1 <0>         0.1364
     36 H13         6.6309   -7.2288    3.9664 H         1 <0>         0.1690
     37 H14         5.8171   -3.3340    5.3354 H         1 <0>         0.4162
     38 H15         3.5695   -2.5465    3.8491 H         1 <0>         0.1046
@<TRIPOS>BOND
     1    1    6 ar
     2    1    2 ar
     3    1   24 1
     4    2    3 ar
     5    2   25 1
     6    3    4 ar
     7    3   26 1
     8    4    5 ar
     9    4    7 1
    10    5    6 ar
    11    5   27 1
    12    6   28 1
    13    7    8 1
    14    7   29 1
    15    7   30 1
    16    8    9 2
    17    9   14 1
    18    9   10 1
    19   10   11 1
    20   10   31 1
    21   10   38 1
    22   11   19 1
    23   11   12 1
    24   11   32 1
    25   12   13 1
    26   12   15 1
    27   12   33 1
    28   13   14 2
    29   13   34 1
    30   14   35 1
    31   15   16 2
    32   15   20 1
    33   16   17 1
    34   16   36 1
    35   17   18 2
    36   17   19 am
    37   19   37 1
    38   20   21 1
    39   20   22 1
    40   20   23 1
@<TRIPOS>MOLECULE
CHEMBL389367__2
   38    40     0     0     0
SMALL
USER_CHARGES

@<TRIPOS>ATOM
      1 C1          0.2432    1.8254    0.0817 C.ar      1 <0>        -0.1167
      2 C2          1.5064    2.3806   -0.0009 C.ar      1 <0>        -0.1199
      3 C3          2.6200    1.5623   -0.0362 C.ar      1 <0>        -0.0988
      4 C4          2.4703    0.1889    0.0115 C.ar      1 <0>        -0.0804
      5 C5          1.2071   -0.3662    0.0951 C.ar      1 <0>        -0.1112
      6 C6          0.0935    0.4520    0.1290 C.ar      1 <0>        -0.1196
      7 C7          3.6843   -0.7032   -0.0280 C.3       1 <0>         0.0645
      8 N1          4.1518   -0.9524    1.3379 N.2       1 <0>        -0.4860
      9 C8          4.1463   -2.1569    1.8147 C.2       1 <0>         0.1911
     10 C9          4.4845   -2.4184    3.2709 C.3       1 <0>        -0.0771
     11 C10         3.5381   -3.5215    3.7499 C.3       1 <0>         0.1526
     12 C11         3.8063   -4.7855    2.9343 C.3       1 <0>        -0.0426
     13 C12         3.6452   -4.5188    1.4719 C.2       1 <0>        -0.0985
     14 C13         3.8059   -3.3055    0.9591 C.2       1 <0>        -0.1714
     15 C14         2.9029   -5.8858    3.4181 C.2       1 <0>        -0.1595
     16 C15         2.6742   -5.9789    4.7330 C.2       1 <0>        -0.0995
     17 C16         3.3225   -5.0165    5.6431 C.2       1 <0>         0.5525
     18 O1          3.4967   -5.3020    6.8124 O.2       1 <0>        -0.5089
     19 N2          3.7220   -3.8133    5.1691 N.am      1 <0>        -0.7168
     20 C17         2.2740   -6.8552    2.4507 C.3       1 <0>         0.5074
     21 F1          1.4855   -7.7714    3.1550 F         1 <0>        -0.1706
     22 F2          1.4747   -6.1541    1.5414 F         1 <0>        -0.1675
     23 F3          3.2781   -7.5398    1.7577 F         1 <0>        -0.1690
     24 H1         -0.6266    2.4649    0.1138 H         1 <0>         0.1230
     25 H2          1.6234    3.4536   -0.0383 H         1 <0>         0.1241
     26 H3          3.6070    1.9960   -0.1015 H         1 <0>         0.1234
     27 H4          1.0901   -1.4392    0.1320 H         1 <0>         0.1179
     28 H5         -0.8935    0.0183    0.1938 H         1 <0>         0.1231
     29 H6          3.4242   -1.6499   -0.5014 H         1 <0>         0.0645
     30 H7          4.4746   -0.2163   -0.5993 H         1 <0>         0.0967
     31 H8          5.5191   -2.7498    3.3598 H         1 <0>         0.1025
     32 H9          2.5077   -3.2106    3.5777 H         1 <0>         0.0899
     33 H10         4.8355   -5.0963    3.1143 H         1 <0>         0.1233
     34 H11         3.3862   -5.3361    0.8150 H         1 <0>         0.1303
     35 H12         3.6894   -3.1595   -0.1046 H         1 <0>         0.1365
     36 H13         2.0237   -6.7480    5.1225 H         1 <0>         0.1690
     37 H14         4.1231   -3.1575    5.7606 H         1 <0>         0.4163
     38 H15         4.3299   -1.5132    3.8581 H         1 <0>         0.1056
@<TRIPOS>BOND
     1    1    6 ar
     2    1    2 ar
     3    1   24 1
     4    2    3 ar
     5    2   25 1
     6    3    4 ar
     7    3   26 1
     8    4    5 ar
     9    4    7 1
    10    5    6 ar
    11    5   27 1
    12    6   28 1
    13    7    8 1
    14    7   29 1
    15    7   30 1
    16    8    9 2
    17    9   14 1
    18    9   10 1
    19   10   11 1
    20   10   31 1
    21   10   38 1
    22   11   19 1
    23   11   12 1
    24   11   32 1
    25   12   13 1
    26   12   15 1
    27   12   33 1
    28   13   14 2
    29   13   34 1
    30   14   35 1
    31   15   16 2
    32   15   20 1
    33   16   17 1
    34   16   36 1
    35   17   18 2
    36   17   19 am
    37   19   37 1
    38   20   21 1
    39   20   22 1
    40   20   23 1
@<TRIPOS>MOLECULE
CHEMBL389367__3
   38    40     0     0     0
SMALL
USER_CHARGES

@<TRIPOS>ATOM
      1 C1          0.2769    1.3654   -0.7077 C.ar      1 <0>        -0.1173
      2 C2          1.4534    2.0691   -0.5298 C.ar      1 <0>        -0.1192
      3 C3          2.6413    1.3906   -0.3316 C.ar      1 <0>        -0.0993
      4 C4          2.6527    0.0084   -0.3110 C.ar      1 <0>        -0.0838
      5 C5          1.4761   -0.6952   -0.4880 C.ar      1 <0>        -0.1134
      6 C6          0.2884   -0.0167   -0.6876 C.ar      1 <0>        -0.1191
      7 C7          3.9480   -0.7313   -0.0959 C.3       1 <0>         0.0669
      8 N1          4.1518   -0.9524    1.3379 N.2       1 <0>        -0.4880
      9 C8          4.1463   -2.1569    1.8147 C.2       1 <0>         0.1877
     10 C9          4.4822   -2.4291    3.2663 C.3       1 <0>        -0.0814
     11 C10         5.3937   -3.6585    3.3114 C.3       1 <0>         0.1537
     12 C11         4.6878   -4.8623    2.7068 C.3       1 <0>        -0.0374
     13 C12         4.0663   -4.5432    1.3811 C.2       1 <0>        -0.0981
     14 C13         3.8072   -3.3130    0.9673 C.2       1 <0>        -0.1700
     15 C14         5.6508   -6.0105    2.5495 C.2       1 <0>        -0.1597
     16 C15         6.9315   -5.7775    2.2812 C.2       1 <0>        -0.0943
     17 C16         7.4140   -4.3924    2.1652 C.2       1 <0>         0.5520
     18 O1          8.5022   -4.1630    1.6731 O.2       1 <0>        -0.5141
     19 N2          6.6429   -3.3794    2.6068 N.am      1 <0>        -0.7132
     20 C17         5.1601   -7.4278    2.6963 C.3       1 <0>         0.5048
     21 F1          6.2274   -8.3127    2.5090 F         1 <0>        -0.1711
     22 F2          4.6258   -7.6060    3.9769 F         1 <0>        -0.1688
     23 F3          4.1714   -7.6805    1.7393 F         1 <0>        -0.1705
     24 H1         -0.6519    1.8956   -0.8581 H         1 <0>         0.1232
     25 H2          1.4445    3.1489   -0.5459 H         1 <0>         0.1243
     26 H3          3.5606    1.9403   -0.1933 H         1 <0>         0.1238
     27 H4          1.4851   -1.7751   -0.4722 H         1 <0>         0.1165
     28 H5         -0.6308   -0.5665   -0.8263 H         1 <0>         0.1231
     29 H6          3.9074   -1.6918   -0.6095 H         1 <0>         0.0613
     30 H7          4.7737   -0.1412   -0.4936 H         1 <0>         0.0992
     31 H8          4.9996   -1.5698    3.6931 H         1 <0>         0.1057
     32 H9          5.6219   -3.8878    4.3523 H         1 <0>         0.0986
     33 H10         3.8988   -5.1775    3.3897 H         1 <0>         0.1265
     34 H11         3.8115   -5.3642    0.7273 H         1 <0>         0.1257
     35 H12         3.3487   -3.1552    0.0022 H         1 <0>         0.1325
     36 H13         7.6160   -6.6024    2.1492 H         1 <0>         0.1663
     37 H14         6.9179   -2.4616    2.4558 H         1 <0>         0.4134
     38 H15         3.5681   -2.6263    3.8263 H         1 <0>         0.1136
@<TRIPOS>BOND
     1    1    6 ar
     2    1    2 ar
     3    1   24 1
     4    2    3 ar
     5    2   25 1
     6    3    4 ar
     7    3   26 1
     8    4    5 ar
     9    4    7 1
    10    5    6 ar
    11    5   27 1
    12    6   28 1
    13    7    8 1
    14    7   29 1
    15    7   30 1
    16    8    9 2
    17    9   14 1
    18    9   10 1
    19   10   11 1
    20   10   31 1
    21   10   38 1
    22   11   19 1
    23   11   12 1
    24   11   32 1
    25   12   13 1
    26   12   15 1
    27   12   33 1
    28   13   14 2
    29   13   34 1
    30   14   35 1
    31   15   16 2
    32   15   20 1
    33   16   17 1
    34   16   36 1
    35   17   18 2
    36   17   19 am
    37   19   37 1
    38   20   21 1
    39   20   22 1
    40   20   23 1
@<TRIPOS>MOLECULE
CHEMBL1210214
   51    55     0     0     0
SMALL
USER_CHARGES

@<TRIPOS>ATOM
      1 C1          0.0128    1.4962    0.1212 C.3       1 <0>        -0.1389
      2 C2          0.0246   -0.0325    0.0601 C.3       1 <0>         0.1050
      3 C3         -1.3978   -0.6169    0.0908 C.3       1 <0>         0.1163
      4 N1         -1.2862   -2.0830    0.0054 N.pl3     1 <0>        -0.5900
      5 C4         -0.2962   -2.7541    0.8645 C.3       1 <0>         0.1161
      6 C5          1.0249   -1.9730    0.7642 C.3       1 <0>         0.1046
      7 O1          0.7570   -0.6105    1.1631 O.3       1 <0>        -0.3432
      8 C6          1.4131   -1.8775   -0.7279 C.3       1 <0>        -0.1374
      9 H1          1.1090   -2.7520   -1.3031 H         1 <0>         0.1480
     10 C7          0.7416   -0.5528   -1.2055 C.3       1 <0>        -0.1388
     11 H2          0.0644   -0.7031   -2.0464 H         1 <0>         0.1470
     12 C8          1.9069    0.3567   -1.5231 C.2       1 <0>         0.5430
     13 O2          1.8164    1.4942   -1.9322 O.2       1 <0>        -0.4534
     14 N2          3.0536   -0.2890   -1.2816 N.am      1 <0>        -0.5426
     15 C9          2.8923   -1.5843   -0.8375 C.2       1 <0>         0.5447
     16 O3          3.7822   -2.3592   -0.5599 O.2       1 <0>        -0.4389
     17 C10         4.3081    0.2968   -1.4810 C.ar      1 <0>         0.1406
     18 C11         5.1301    0.5634   -0.3915 C.ar      1 <0>        -0.0671
     19 C12         6.3656    1.1405   -0.5837 C.ar      1 <0>        -0.0556
     20 C13         6.7932    1.4578   -1.8759 C.ar      1 <0>         0.0401
     21 C14         5.9646    1.1880   -2.9682 C.ar      1 <0>        -0.1304
     22 C15         4.7323    0.6058   -2.7683 C.ar      1 <0>        -0.0537
     23 C16         6.4207    1.5286   -4.3635 C.3       1 <0>         0.5073
     24 F1          5.4274    1.1673   -5.2801 F         1 <0>        -0.1682
     25 F2          6.6600    2.9041   -4.4532 F         1 <0>        -0.1669
     26 F3          7.5982    0.8307   -4.6527 F         1 <0>        -0.1676
     27 C17         8.0771    2.0584   -2.0800 C.1       1 <0>         0.2270
     28 N3          9.0956    2.5349   -2.2418 N.1       1 <0>        -0.3631
     29 C18         2.1278   -2.6097    1.6123 C.3       1 <0>        -0.1388
     30 C19        -2.0890   -2.8091   -0.8572 C.ar      1 <0>         0.5648
     31 N4         -2.9648   -2.1694   -1.6182 N.ar      1 <0>        -0.5696
     32 C20        -3.7467   -2.8333   -2.4535 C.ar      1 <0>         0.1949
     33 C21        -3.6411   -4.2134   -2.5262 C.ar      1 <0>        -0.2890
     34 C22        -2.7145   -4.8506   -1.7160 C.ar      1 <0>         0.1947
     35 N5         -1.9596   -4.1268   -0.9061 N.ar      1 <0>        -0.5699
     36 H3          1.0372    1.8682    0.1099 H         1 <0>         0.0736
     37 H4         -0.5264    1.8901   -0.7403 H         1 <0>         0.0885
     38 H5         -0.4811    1.8193    1.0376 H         1 <0>         0.0783
     39 H6         -1.8911   -0.3382    1.0220 H         1 <0>         0.0858
     40 H7         -1.9697   -0.2405   -0.7574 H         1 <0>         0.1140
     41 H8         -0.6455   -2.7567    1.8970 H         1 <0>         0.0858
     42 H9         -0.1457   -3.7783    0.5230 H         1 <0>         0.1138
     43 H10         4.7989    0.3179    0.6068 H         1 <0>         0.1515
     44 H11         7.0031    1.3479    0.2631 H         1 <0>         0.1597
     45 H12         4.0929    0.3932   -3.6123 H         1 <0>         0.1543
     46 H13         2.3151   -3.6247    1.2621 H         1 <0>         0.0888
     47 H14         3.0405   -2.0204    1.5232 H         1 <0>         0.0718
     48 H15         1.8136   -2.6374    2.6556 H         1 <0>         0.0801
     49 H16        -4.4590   -2.3064   -3.0710 H         1 <0>         0.1688
     50 H17        -4.2675   -4.7800   -3.1992 H         1 <0>         0.1456
     51 H18        -2.6075   -5.9248   -1.7483 H         1 <0>         0.1687
@<TRIPOS>BOND
     1    1    2 1
     2    1   36 1
     3    1   37 1
     4    1   38 1
     5    2    7 1
     6    2   10 1
     7    2    3 1
     8    3    4 1
     9    3   39 1
    10    3   40 1
    11    4    5 1
    12    4   30 1
    13    5    6 1
    14    5   41 1
    15    5   42 1
    16    6    7 1
    17    6    8 1
    18    6   29 1
    19    8    9 1
    20    8   15 1
    21    8   10 1
    22   10   11 1
    23   10   12 1
    24   12   13 2
    25   12   14 am
    26   14   15 am
    27   14   17 1
    28   15   16 2
    29   17   22 ar
    30   17   18 ar
    31   18   19 ar
    32   18   43 1
    33   19   20 ar
    34   19   44 1
    35   20   21 ar
    36   20   27 1
    37   21   22 ar
    38   21   23 1
    39   22   45 1
    40   23   24 1
    41   23   25 1
    42   23   26 1
    43   27   28 3
    44   29   46 1
    45   29   47 1
    46   29   48 1
    47   30   35 ar
    48   30   31 ar
    49   31   32 ar
    50   32   33 ar
    51   32   49 1
    52   33   34 ar
    53   33   50 1
    54   34   35 ar
    55   34   51 1
@<TRIPOS>MOLECULE
CHEMBL274826
   47    50     0     0     0
SMALL
USER_CHARGES

@<TRIPOS>ATOM
      1 C1         -0.0106    1.5258    0.0155 C.3       1 <0>        -0.1567
      2 C2          0.0110   -0.0040    0.0076 C.3       1 <0>        -0.0290
      3 C3         -1.4250   -0.4604   -0.0781 C.3       1 <0>        -0.1111
      4 C4         -1.6446   -1.8142    0.5964 C.3       1 <0>        -0.1665
      5 C5         -1.1481   -1.7001    2.0253 C.2       1 <0>         0.3875
      6 O1         -1.8382   -2.0163    2.9718 O.2       1 <0>        -0.4568
      7 C6          0.2175   -1.1849    2.1965 C.2       1 <0>        -0.2396
      8 C7          0.7486   -0.4312    1.2382 C.2       1 <0>        -0.0225
      9 C8          2.1954    0.0123    1.3750 C.3       1 <0>        -0.0967
     10 C9          2.9338   -0.4089    0.0994 C.3       1 <0>        -0.1116
     11 C10         2.2226    0.1624   -1.1275 C.3       1 <0>        -0.0802
     12 H1          2.1659    1.2479   -1.0461 H         1 <0>         0.0912
     13 C11         0.8044   -0.4235   -1.2309 C.3       1 <0>        -0.0655
     14 H2          0.8667   -1.5112   -1.2661 H         1 <0>         0.0738
     15 C12         0.0859    0.0631   -2.4856 C.3       1 <0>        -0.1242
     16 C13         0.9081   -0.2173   -3.7538 C.3       1 <0>        -0.0970
     17 C14         2.2510    0.4637   -3.5781 C.3       1 <0>        -0.1248
     18 C15         2.9785   -0.2164   -2.3885 C.3       1 <0>        -0.0789
     19 H3          2.9826   -1.2983   -2.5207 H         1 <0>         0.0828
     20 C16         4.3916    0.3672   -2.5146 C.3       1 <0>        -0.1117
     21 C17         4.6247    0.3562   -4.0501 C.3       1 <0>        -0.1814
     22 C18         3.2307    0.3329   -4.7066 C.2       1 <0>         0.3781
     23 O2          2.9768    0.2561   -5.8847 O.2       1 <0>        -0.4368
     24 C19         2.0394    1.9427   -3.2485 C.3       1 <0>        -0.1447
     25 H4          1.0118    1.9036    0.0052 H         1 <0>         0.0675
     26 H5         -0.5401    1.8863   -0.8664 H         1 <0>         0.0679
     27 H6         -0.5188    1.8773    0.9134 H         1 <0>         0.0574
     28 H7         -2.0610    0.2819    0.4040 H         1 <0>         0.0715
     29 H8         -1.7089   -0.5384   -1.1276 H         1 <0>         0.0892
     30 H9         -2.7061   -2.0616    0.5923 H         1 <0>         0.0919
     31 H10        -1.0822   -2.5853    0.0699 H         1 <0>         0.0984
     32 H11         0.7861   -1.4256    3.0826 H         1 <0>         0.1357
     33 H12         2.2408    1.0955    1.4878 H         1 <0>         0.0831
     34 H13         2.6493   -0.4695    2.2410 H         1 <0>         0.0784
     35 H14         3.9565   -0.0333    0.1325 H         1 <0>         0.0733
     36 H15         2.9512   -1.4968    0.0338 H         1 <0>         0.0668
     37 H16        -0.8751   -0.4453   -2.5651 H         1 <0>         0.0715
     38 H17        -0.0865    1.1362   -2.4034 H         1 <0>         0.0756
     39 H18         1.0496   -1.2913   -3.8744 H         1 <0>         0.0671
     40 H19         0.3964    0.1907   -4.6255 H         1 <0>         0.0722
     41 H20         4.4264    1.3846   -2.1251 H         1 <0>         0.0786
     42 H21         5.1190   -0.2673   -2.0082 H         1 <0>         0.0784
     43 H22         5.1830    1.2432   -4.3493 H         1 <0>         0.0988
     44 H23         5.1690   -0.5430   -4.3386 H         1 <0>         0.0946
     45 H24         1.3898    2.0316   -2.3778 H         1 <0>         0.0815
     46 H25         3.0012    2.4082   -3.0333 H         1 <0>         0.0634
     47 H26         1.5765    2.4420   -4.0997 H         1 <0>         0.0594
@<TRIPOS>BOND
     1    1    2 1
     2    1   25 1
     3    1   26 1
     4    1   27 1
     5    2    8 1
     6    2   13 1
     7    2    3 1
     8    3    4 1
     9    3   28 1
    10    3   29 1
    11    4    5 1
    12    4   30 1
    13    4   31 1
    14    5    6 2
    15    5    7 1
    16    7    8 2
    17    7   32 1
    18    8    9 1
    19    9   10 1
    20    9   33 1
    21    9   34 1
    22   10   11 1
    23   10   35 1
    24   10   36 1
    25   11   12 1
    26   11   18 1
    27   11   13 1
    28   13   14 1
    29   13   15 1
    30   15   16 1
    31   15   37 1
    32   15   38 1
    33   16   17 1
    34   16   39 1
    35   16   40 1
    36   17   22 1
    37   17   18 1
    38   17   24 1
    39   18   19 1
    40   18   20 1
    41   20   21 1
    42   20   41 1
    43   20   42 1
    44   21   22 1
    45   21   43 1
    46   21   44 1
    47   22   23 2
    48   24   45 1
    49   24   46 1
    50   24   47 1
@<TRIPOS>MOLECULE
CHEMBL243136
   41    43     0     0     0
SMALL
USER_CHARGES

@<TRIPOS>ATOM
      1 C1         -0.1189    1.3499    0.0260 C.3       1 <0>        -0.1218
      2 C2          1.2060    2.0894   -0.1711 C.3       1 <0>        -0.1189
      3 C3          1.9023    1.5622   -1.4274 C.3       1 <0>        -0.1018
      4 C4          2.1726    0.0645   -1.2701 C.3       1 <0>         0.0597
      5 C5          0.8478   -0.6750   -1.0729 C.3       1 <0>        -0.1082
      6 C6          0.1515   -0.1478    0.1833 C.3       1 <0>        -0.1186
      7 N1          2.8393   -0.4404   -2.4730 N.2       1 <0>        -0.4921
      8 C7          3.9561   -1.0888   -2.3707 C.2       1 <0>         0.1860
      9 C8          4.7490   -1.4870   -3.5982 C.3       1 <0>        -0.0815
     10 C9          6.2262   -1.2051   -3.3107 C.3       1 <0>         0.1539
     11 C10         6.6933   -2.0090   -2.1072 C.3       1 <0>        -0.0369
     12 C11         5.7538   -1.8821   -0.9466 C.2       1 <0>        -0.1014
     13 C12         4.5061   -1.4613   -1.0559 C.2       1 <0>        -0.1665
     14 C13         8.0738   -1.5730   -1.6890 C.2       1 <0>        -0.1594
     15 C14         8.4494   -0.3069   -1.8386 C.2       1 <0>        -0.0948
     16 C15         7.5224    0.6646   -2.4401 C.2       1 <0>         0.5521
     17 O1          7.7433    1.8571   -2.3503 O.2       1 <0>        -0.5146
     18 N2          6.4277    0.2254   -3.0914 N.am      1 <0>        -0.7128
     19 C16         9.0314   -2.5757   -1.0987 C.3       1 <0>         0.5048
     20 F1         10.2397   -1.9413   -0.7908 F         1 <0>        -0.1713
     21 F2          8.4792   -3.1179    0.0667 F         1 <0>        -0.1704
     22 F3          9.2644   -3.5988   -2.0240 F         1 <0>        -0.1689
     23 H1         -0.6149    1.7255    0.9210 H         1 <0>         0.0641
     24 H2         -0.7593    1.5145   -0.8405 H         1 <0>         0.0644
     25 H3          1.0134    3.1564   -0.2832 H         1 <0>         0.0678
     26 H4          1.8464    1.9248    0.6954 H         1 <0>         0.0610
     27 H5          1.2619    1.7267   -2.2939 H         1 <0>         0.0720
     28 H6          2.8461    2.0889   -1.5678 H         1 <0>         0.0603
     29 H7          2.8130   -0.1001   -0.4036 H         1 <0>         0.0579
     30 H8          0.2073   -0.5104   -1.9395 H         1 <0>         0.0721
     31 H9          1.0404   -1.7420   -0.9609 H         1 <0>         0.0593
     32 H10         0.7919   -0.3123    1.0498 H         1 <0>         0.0611
     33 H11        -0.7924   -0.6745    0.3238 H         1 <0>         0.0671
     34 H12         4.6081   -2.5487   -3.8005 H         1 <0>         0.1124
     35 H13         6.8164   -1.5141   -4.1735 H         1 <0>         0.0981
     36 H14         6.7458   -3.0592   -2.3940 H         1 <0>         0.1257
     37 H15         6.1187   -2.1455    0.0352 H         1 <0>         0.1248
     38 H16         3.8845   -1.3942   -0.1753 H         1 <0>         0.1313
     39 H17         9.4319    0.0079   -1.5193 H         1 <0>         0.1661
     40 H18         5.7709    0.8612   -3.4158 H         1 <0>         0.4131
     41 H19         4.4211   -0.9000   -4.4562 H         1 <0>         0.1050
@<TRIPOS>BOND
     1    1    6 1
     2    1    2 1
     3    1   23 1
     4    1   24 1
     5    2    3 1
     6    2   25 1
     7    2   26 1
     8    3    4 1
     9    3   27 1
    10    3   28 1
    11    4    5 1
    12    4    7 1
    13    4   29 1
    14    5    6 1
    15    5   30 1
    16    5   31 1
    17    6   32 1
    18    6   33 1
    19    7    8 2
    20    8   13 1
    21    8    9 1
    22    9   10 1
    23    9   34 1
    24    9   41 1
    25   10   18 1
    26   10   11 1
    27   10   35 1
    28   11   12 1
    29   11   14 1
    30   11   36 1
    31   12   13 2
    32   12   37 1
    33   13   38 1
    34   14   15 2
    35   14   19 1
    36   15   16 1
    37   15   39 1
    38   16   17 2
    39   16   18 am
    40   18   40 1
    41   19   20 1
    42   19   21 1
    43   19   22 1
@<TRIPOS>MOLECULE
CHEMBL243136__1
   41    43     0     0     0
SMALL
USER_CHARGES

@<TRIPOS>ATOM
      1 C1         -0.1325    1.3263    0.0267 C.3       1 <0>        -0.1223
      2 C2          1.1921    2.0691   -0.1589 C.3       1 <0>        -0.1189
      3 C3          1.8947    1.5527   -1.4161 C.3       1 <0>        -0.1031
      4 C4          2.1666    0.0542   -1.2692 C.3       1 <0>         0.0569
      5 C5          0.8419   -0.6887   -1.0836 C.3       1 <0>        -0.1078
      6 C6          0.1393   -0.1722    0.1735 C.3       1 <0>        -0.1186
      7 N1          2.8393   -0.4404   -2.4730 N.2       1 <0>        -0.4886
      8 C7          3.9561   -1.0888   -2.3707 C.2       1 <0>         0.1890
      9 C8          4.7426   -1.4829   -3.6073 C.3       1 <0>        -0.0765
     10 C9          5.3064   -2.8806   -3.3418 C.3       1 <0>         0.1510
     11 C10         6.2521   -2.8080   -2.1437 C.3       1 <0>        -0.0417
     12 C11         5.5482   -2.2613   -0.9431 C.2       1 <0>        -0.1016
     13 C12         4.4971   -1.4563   -1.0518 C.2       1 <0>        -0.1689
     14 C13         6.8363   -4.1707   -1.8931 C.2       1 <0>        -0.1591
     15 C14         7.1619   -4.9196   -2.9528 C.2       1 <0>        -0.1002
     16 C15         6.9485   -4.3764   -4.3071 C.2       1 <0>         0.5524
     17 O1          7.5933   -4.8028   -5.2459 O.2       1 <0>        -0.5095
     18 N2          6.0303   -3.4007   -4.4987 N.am      1 <0>        -0.7171
     19 C16         7.0484   -4.6779   -0.4900 C.3       1 <0>         0.5073
     20 F1          7.6004   -5.9625   -0.5369 F         1 <0>        -0.1708
     21 F2          7.9204   -3.8202    0.1892 F         1 <0>        -0.1692
     22 F3          5.8213   -4.7218    0.1805 F         1 <0>        -0.1674
     23 H1         -0.6331    1.6942    0.9223 H         1 <0>         0.0643
     24 H2         -0.7693    1.4967   -0.8414 H         1 <0>         0.0643
     25 H3          0.9985    3.1367   -0.2635 H         1 <0>         0.0677
     26 H4          1.8289    1.8988    0.7092 H         1 <0>         0.0616
     27 H5          1.2579    1.7230   -2.2841 H         1 <0>         0.0721
     28 H6          2.8384    2.0819   -1.5483 H         1 <0>         0.0611
     29 H7          2.8034   -0.1162   -0.4011 H         1 <0>         0.0611
     30 H8          0.2051   -0.5183   -1.9517 H         1 <0>         0.0721
     31 H9          1.0356   -1.7562   -0.9790 H         1 <0>         0.0602
     32 H10         0.7761   -0.3426    1.0416 H         1 <0>         0.0618
     33 H11        -0.8044   -0.7014    0.3057 H         1 <0>         0.0673
     34 H12         4.0850   -1.5048   -4.4763 H         1 <0>         0.1052
     35 H13         4.4880   -3.5574   -3.0963 H         1 <0>         0.0898
     36 H14         7.0719   -2.1354   -2.3958 H         1 <0>         0.1226
     37 H15         5.9074   -2.5247    0.0408 H         1 <0>         0.1293
     38 H16         4.0291   -1.0688   -0.1589 H         1 <0>         0.1355
     39 H17         7.5756   -5.9081   -2.8182 H         1 <0>         0.1688
     40 H18         5.8562   -3.0536   -5.3876 H         1 <0>         0.4161
     41 H19         5.5569   -0.7773   -3.7720 H         1 <0>         0.1035
@<TRIPOS>BOND
     1    1    6 1
     2    1    2 1
     3    1   23 1
     4    1   24 1
     5    2    3 1
     6    2   25 1
     7    2   26 1
     8    3    4 1
     9    3   27 1
    10    3   28 1
    11    4    5 1
    12    4    7 1
    13    4   29 1
    14    5    6 1
    15    5   30 1
    16    5   31 1
    17    6   32 1
    18    6   33 1
    19    7    8 2
    20    8   13 1
    21    8    9 1
    22    9   10 1
    23    9   34 1
    24    9   41 1
    25   10   18 1
    26   10   11 1
    27   10   35 1
    28   11   12 1
    29   11   14 1
    30   11   36 1
    31   12   13 2
    32   12   37 1
    33   13   38 1
    34   14   15 2
    35   14   19 1
    36   15   16 1
    37   15   39 1
    38   16   17 2
    39   16   18 am
    40   18   40 1
    41   19   20 1
    42   19   21 1
    43   19   22 1
@<TRIPOS>MOLECULE
CHEMBL243136__2
   41    43     0     0     0
SMALL
USER_CHARGES

@<TRIPOS>ATOM
      1 C1          0.0953    1.6647   -0.0053 C.3       1 <0>        -0.1222
      2 C2          1.5862    1.9488   -0.1982 C.3       1 <0>        -0.1187
      3 C3          2.3583    1.4824    1.0376 C.3       1 <0>        -0.1090
      4 C4          2.1467   -0.0201    1.2342 C.3       1 <0>         0.0579
      5 C5          0.6557   -0.3042    1.4271 C.3       1 <0>        -0.1021
      6 C6         -0.1164    0.1622    0.1913 C.3       1 <0>        -0.1189
      7 N1          2.8860   -0.4666    2.4176 N.2       1 <0>        -0.4894
      8 C7          3.8899   -1.2750    2.2872 C.2       1 <0>         0.1895
      9 C8          4.5620   -1.8828    3.5045 C.3       1 <0>        -0.0770
     10 C9          4.9069   -3.3284    3.1393 C.3       1 <0>         0.1524
     11 C10         5.8921   -3.3171    1.9713 C.3       1 <0>        -0.0420
     12 C11         5.3243   -2.5750    0.8040 C.2       1 <0>        -0.1017
     13 C12         4.4032   -1.6317    0.9543 C.2       1 <0>        -0.1676
     14 C13         6.2621   -4.7326    1.6244 C.2       1 <0>        -0.1590
     15 C14         6.4294   -5.6024    2.6269 C.2       1 <0>        -0.1002
     16 C15         6.2588   -5.1367    4.0158 C.2       1 <0>         0.5526
     17 O1          6.7960   -5.7310    4.9307 O.2       1 <0>        -0.5092
     18 N2          5.5001   -4.0441    4.2658 N.am      1 <0>        -0.7169
     19 C16         6.4398   -5.1587    0.1898 C.3       1 <0>         0.5073
     20 F1          6.7800   -6.5149    0.1449 F         1 <0>        -0.1707
     21 F2          5.2450   -4.9542   -0.5088 F         1 <0>        -0.1674
     22 F3          7.4592   -4.4024   -0.3985 F         1 <0>        -0.1691
     23 H1         -0.2661    2.2004    0.8724 H         1 <0>         0.0643
     24 H2         -0.4548    1.9969   -0.8857 H         1 <0>         0.0643
     25 H3          1.9476    1.4130   -1.0760 H         1 <0>         0.0618
     26 H4          1.7370    3.0192   -0.3383 H         1 <0>         0.0672
     27 H5          3.4205    1.6848    0.9002 H         1 <0>         0.0599
     28 H6          1.9970    2.0182    1.9154 H         1 <0>         0.0723
     29 H7          2.5081   -0.5558    0.3565 H         1 <0>         0.0609
     30 H8          0.5050   -1.3746    1.5672 H         1 <0>         0.0612
     31 H9          0.2944    0.2316    2.3049 H         1 <0>         0.0721
     32 H10        -1.1786   -0.0402    0.3287 H         1 <0>         0.0679
     33 H11         0.2450   -0.3736   -0.6865 H         1 <0>         0.0618
     34 H12         5.4715   -1.3312    3.7428 H         1 <0>         0.1014
     35 H13         4.0006   -3.8449    2.8228 H         1 <0>         0.0898
     36 H14         6.7988   -2.8055    2.2942 H         1 <0>         0.1226
     37 H15         5.6705   -2.8168   -0.1900 H         1 <0>         0.1294
     38 H16         4.0273   -1.1139    0.0843 H         1 <0>         0.1345
     39 H17         6.6856   -6.6314    2.4221 H         1 <0>         0.1689
     40 H18         5.3535   -3.7419    5.1758 H         1 <0>         0.4161
     41 H19         3.8802   -1.8653    4.3547 H         1 <0>         0.1052
@<TRIPOS>BOND
     1    1    6 1
     2    1    2 1
     3    1   23 1
     4    1   24 1
     5    2    3 1
     6    2   25 1
     7    2   26 1
     8    3    4 1
     9    3   27 1
    10    3   28 1
    11    4    5 1
    12    4    7 1
    13    4   29 1
    14    5    6 1
    15    5   30 1
    16    5   31 1
    17    6   32 1
    18    6   33 1
    19    7    8 2
    20    8   13 1
    21    8    9 1
    22    9   10 1
    23    9   34 1
    24    9   41 1
    25   10   18 1
    26   10   11 1
    27   10   35 1
    28   11   12 1
    29   11   14 1
    30   11   36 1
    31   12   13 2
    32   12   37 1
    33   13   38 1
    34   14   15 2
    35   14   19 1
    36   15   16 1
    37   15   39 1
    38   16   17 2
    39   16   18 am
    40   18   40 1
    41   19   20 1
    42   19   21 1
    43   19   22 1
@<TRIPOS>MOLECULE
CHEMBL243136__3
   41    43     0     0     0
SMALL
USER_CHARGES

@<TRIPOS>ATOM
      1 C1         -0.2195    1.1615    0.0327 C.3       1 <0>        -0.1218
      2 C2          1.2241    1.6041    0.2797 C.3       1 <0>        -0.1185
      3 C3          2.0637    1.3250   -0.9685 C.3       1 <0>        -0.1086
      4 C4          2.0354   -0.1732   -1.2778 C.3       1 <0>         0.0597
      5 C5          0.5917   -0.6157   -1.5248 C.3       1 <0>        -0.1017
      6 C6         -0.2479   -0.3366   -0.2765 C.3       1 <0>        -0.1191
      7 N1          2.8393   -0.4404   -2.4730 N.2       1 <0>        -0.4919
      8 C7          3.9561   -1.0888   -2.3707 C.2       1 <0>         0.1857
      9 C8          4.7490   -1.4870   -3.5982 C.3       1 <0>        -0.0815
     10 C9          5.2367   -2.9237   -3.3924 C.3       1 <0>         0.1537
     11 C10         6.1163   -3.0111   -2.1548 C.3       1 <0>        -0.0367
     12 C11         5.4866   -2.3461   -0.9686 C.2       1 <0>        -0.1013
     13 C12         4.5061   -1.4613   -1.0559 C.2       1 <0>        -0.1667
     14 C13         6.4169   -4.4506   -1.8257 C.2       1 <0>        -0.1595
     15 C14         5.5189   -5.3966   -2.0804 C.2       1 <0>        -0.0948
     16 C15         4.2386   -5.0387   -2.7111 C.2       1 <0>         0.5520
     17 O1          3.3161   -5.8311   -2.7149 O.2       1 <0>        -0.5146
     18 N2          4.0940   -3.8277   -3.2840 N.am      1 <0>        -0.7128
     19 C16         7.7400   -4.8186   -1.2053 C.3       1 <0>         0.5048
     20 F1          7.7873   -6.2006   -0.9932 F         1 <0>        -0.1712
     21 F2          8.7784   -4.4428   -2.0641 F         1 <0>        -0.1688
     22 F3          7.8826   -4.1540    0.0175 F         1 <0>        -0.1705
     23 H1         -0.8177    1.3603    0.9220 H         1 <0>         0.0641
     24 H2         -0.6297    1.7147   -0.8122 H         1 <0>         0.0644
     25 H3          1.2443    2.6714    0.5000 H         1 <0>         0.0671
     26 H4          1.6342    1.0508    1.1246 H         1 <0>         0.0611
     27 H5          1.6536    1.8782   -1.8134 H         1 <0>         0.0721
     28 H6          3.0922    1.6403   -0.7926 H         1 <0>         0.0593
     29 H7          2.4455   -0.7264   -0.4329 H         1 <0>         0.0580
     30 H8          0.1816   -0.0625   -2.3697 H         1 <0>         0.0719
     31 H9          0.5715   -1.6830   -1.7451 H         1 <0>         0.0605
     32 H10         0.1622   -0.8899    0.5684 H         1 <0>         0.0610
     33 H11        -1.2763   -0.6519   -0.4525 H         1 <0>         0.0678
     34 H12         4.1126   -1.4359   -4.4816 H         1 <0>         0.1049
     35 H13         5.8357   -3.2174   -4.2544 H         1 <0>         0.0980
     36 H14         7.0613   -2.5114   -2.3680 H         1 <0>         0.1259
     37 H15         5.8568   -2.6000    0.0136 H         1 <0>         0.1247
     38 H16         4.1043   -1.0131   -0.1593 H         1 <0>         0.1316
     39 H17         5.7283   -6.4250   -1.8256 H         1 <0>         0.1661
     40 H18         3.2279   -3.5549   -3.6251 H         1 <0>         0.4132
     41 H19         5.6032   -0.8206   -3.7184 H         1 <0>         0.1126
@<TRIPOS>BOND
     1    1    6 1
     2    1    2 1
     3    1   23 1
     4    1   24 1
     5    2    3 1
     6    2   25 1
     7    2   26 1
     8    3    4 1
     9    3   27 1
    10    3   28 1
    11    4    5 1
    12    4    7 1
    13    4   29 1
    14    5    6 1
    15    5   30 1
    16    5   31 1
    17    6   32 1
    18    6   33 1
    19    7    8 2
    20    8   13 1
    21    8    9 1
    22    9   10 1
    23    9   34 1
    24    9   41 1
    25   10   18 1
    26   10   11 1
    27   10   35 1
    28   11   12 1
    29   11   14 1
    30   11   36 1
    31   12   13 2
    32   12   37 1
    33   13   38 1
    34   14   15 2
    35   14   19 1
    36   15   16 1
    37   15   39 1
    38   16   17 2
    39   16   18 am
    40   18   40 1
    41   19   20 1
    42   19   21 1
    43   19   22 1
@<TRIPOS>MOLECULE
CHEMBL226609
   38    41     0     0     0
SMALL
USER_CHARGES

@<TRIPOS>ATOM
      1 C1         -0.0166    1.3747    0.0096 C.ar      1 <0>        -0.1172
      2 C2          1.1928    2.0821    0.0019 C.ar      1 <0>        -0.0921
      3 C3          1.2107    3.5442    0.0070 C.2       1 <0>        -0.0823
      4 C4          2.4106    4.1789   -0.0025 C.2       1 <0>        -0.1377
      5 C5          3.6074    3.4347   -0.0164 C.2       1 <0>         0.5371
      6 O1          4.6741    4.0251   -0.0252 O.2       1 <0>        -0.5235
      7 N1          3.6025    2.0904   -0.0199 N.am      1 <0>        -0.6180
      8 H1          4.4449    1.6095   -0.0284 H         1 <0>         0.4213
      9 C6          2.4162    1.3844   -0.0116 C.ar      1 <0>         0.1777
     10 C7          2.4158   -0.0052   -0.0169 C.ar      1 <0>        -0.1488
     11 C8          1.2174   -0.6953   -0.0101 C.ar      1 <0>         0.1251
     12 C9          0.0021   -0.0041    0.0020 C.ar      1 <0>         0.1341
     13 N2         -1.2179   -0.7112    0.0010 N.pl3     1 <0>        -0.6186
     14 C10        -2.4524    0.0710    0.0472 C.3       1 <0>         0.1221
     15 C11        -3.5237   -0.6442    0.8658 C.3       1 <0>        -0.1347
     16 C12        -3.6818   -2.0663    0.3174 C.3       1 <0>        -0.1191
     17 C13        -2.3906   -2.8344    0.5745 C.3       1 <0>        -0.1248
     18 C14        -1.1945   -2.1638   -0.0808 C.3       1 <0>         0.1276
     19 C15         0.0885   -2.6994    0.5673 C.3       1 <0>         0.0480
     20 O2          1.2241   -2.0548   -0.0126 O.3       1 <0>        -0.3016
     21 C16        -0.0754    4.3296    0.0221 C.3       1 <0>         0.5090
     22 F1          0.2140    5.6983    0.0244 F         1 <0>        -0.1676
     23 F2         -0.8279    4.0139   -1.1142 F         1 <0>        -0.1668
     24 F3         -0.8062    4.0056    1.1702 F         1 <0>        -0.1677
     25 H2         -0.9570    1.9056    0.0259 H         1 <0>         0.1428
     26 H3          2.4482    5.2583    0.0003 H         1 <0>         0.1717
     27 H4          3.3507   -0.5459   -0.0266 H         1 <0>         0.1502
     28 H5         -2.2447    1.0409    0.4990 H         1 <0>         0.0794
     29 H6         -2.8189    0.2214   -0.9683 H         1 <0>         0.0607
     30 H7         -3.2197   -0.6857    1.9118 H         1 <0>         0.0703
     31 H8         -4.4698   -0.1099    0.7789 H         1 <0>         0.0819
     32 H9         -4.5098   -2.5633    0.8229 H         1 <0>         0.0735
     33 H10        -3.8759   -2.0255   -0.7544 H         1 <0>         0.0682
     34 H11        -2.2201   -2.8927    1.6495 H         1 <0>         0.0707
     35 H12        -2.4931   -3.8443    0.1774 H         1 <0>         0.0826
     36 H13        -1.1775   -2.4472   -1.1332 H         1 <0>         0.0710
     37 H14         0.0646   -2.4994    1.6385 H         1 <0>         0.0715
     38 H15         0.1576   -3.7744    0.4008 H         1 <0>         0.1240
@<TRIPOS>BOND
     1    1   12 ar
     2    1    2 ar
     3    1   25 1
     4    2    9 ar
     5    2    3 1
     6    3    4 2
     7    3   21 1
     8    4    5 1
     9    4   26 1
    10    5    6 2
    11    5    7 am
    12    7    8 1
    13    7    9 1
    14    9   10 ar
    15   10   11 ar
    16   10   27 1
    17   11   20 1
    18   11   12 ar
    19   12   13 1
    20   13   18 1
    21   13   14 1
    22   14   15 1
    23   14   28 1
    24   14   29 1
    25   15   16 1
    26   15   30 1
    27   15   31 1
    28   16   17 1
    29   16   32 1
    30   16   33 1
    31   17   18 1
    32   17   34 1
    33   17   35 1
    34   18   19 1
    35   18   36 1
    36   19   20 1
    37   19   37 1
    38   19   38 1
    39   21   22 1
    40   21   23 1
    41   21   24 1
@<TRIPOS>MOLECULE
CHEMBL226609__1
   38    41     0     0     0
SMALL
USER_CHARGES

@<TRIPOS>ATOM
      1 C1         -0.0166    1.3745    0.0096 C.ar      1 <0>        -0.1173
      2 C2          1.1928    2.0819    0.0019 C.ar      1 <0>        -0.0921
      3 C3          1.2104    3.5441    0.0124 C.2       1 <0>        -0.0823
      4 C4          2.4104    4.1788    0.0049 C.2       1 <0>        -0.1377
      5 C5          3.6072    3.4346   -0.0125 C.2       1 <0>         0.5370
      6 O1          4.6739    4.0250   -0.0190 O.2       1 <0>        -0.5235
      7 N1          3.6024    2.0903   -0.0217 N.am      1 <0>        -0.6180
      8 H1          4.4447    1.6095   -0.0334 H         1 <0>         0.4213
      9 C6          2.4161    1.3842   -0.0153 C.ar      1 <0>         0.1777
     10 C7          2.4157   -0.0055   -0.0255 C.ar      1 <0>        -0.1488
     11 C8          1.2173   -0.6955   -0.0178 C.ar      1 <0>         0.1252
     12 C9          0.0021   -0.0041    0.0020 C.ar      1 <0>         0.1341
     13 N2         -1.2178   -0.7110    0.0189 N.pl3     1 <0>        -0.6186
     14 C10        -2.4528    0.0717    0.0071 C.3       1 <0>         0.1220
     15 C11        -3.5398   -0.6323   -0.8003 C.3       1 <0>        -0.1347
     16 C12        -3.6878   -2.0620   -0.2689 C.3       1 <0>        -0.1191
     17 C13        -2.4015   -2.8259   -0.5608 C.3       1 <0>        -0.1248
     18 C14        -1.1938   -2.1645    0.0825 C.3       1 <0>         0.1275
     19 C15         0.0775   -2.6935   -0.5933 C.3       1 <0>         0.0482
     20 O2          1.2235   -2.0548   -0.0303 O.3       1 <0>        -0.3014
     21 C16        -0.0757    4.3294    0.0306 C.3       1 <0>         0.5090
     22 F1          0.2137    5.6981    0.0378 F         1 <0>        -0.1676
     23 F2         -0.8284    4.0178   -1.1068 F         1 <0>        -0.1677
     24 F3         -0.8063    4.0012    1.1776 F         1 <0>        -0.1669
     25 H2         -0.9570    1.9055    0.0259 H         1 <0>         0.1428
     26 H3          2.4482    5.2581    0.0120 H         1 <0>         0.1717
     27 H4          3.3505   -0.5461   -0.0399 H         1 <0>         0.1502
     28 H5         -2.7997    0.2083    1.0313 H         1 <0>         0.0607
     29 H6         -2.2537    1.0477   -0.4356 H         1 <0>         0.0795
     30 H7         -4.4839   -0.0993   -0.6877 H         1 <0>         0.0818
     31 H8         -3.2562   -0.6593   -1.8524 H         1 <0>         0.0703
     32 H9         -3.8619   -2.0362    0.8068 H         1 <0>         0.0682
     33 H10        -4.5251   -2.5521   -0.7658 H         1 <0>         0.0735
     34 H11        -2.4967   -3.8415   -0.1768 H         1 <0>         0.0826
     35 H12        -2.2506   -2.8683   -1.6395 H         1 <0>         0.0707
     36 H13        -1.1596   -2.4606    1.1309 H         1 <0>         0.0709
     37 H14         0.1493   -3.7701   -0.4385 H         1 <0>         0.1241
     38 H15         0.0345   -2.4834   -1.6620 H         1 <0>         0.0712
@<TRIPOS>BOND
     1    1   12 ar
     2    1    2 ar
     3    1   25 1
     4    2    9 ar
     5    2    3 1
     6    3    4 2
     7    3   21 1
     8    4    5 1
     9    4   26 1
    10    5    6 2
    11    5    7 am
    12    7    8 1
    13    7    9 1
    14    9   10 ar
    15   10   11 ar
    16   10   27 1
    17   11   20 1
    18   11   12 ar
    19   12   13 1
    20   13   18 1
    21   13   14 1
    22   14   15 1
    23   14   28 1
    24   14   29 1
    25   15   16 1
    26   15   30 1
    27   15   31 1
    28   16   17 1
    29   16   32 1
    30   16   33 1
    31   17   18 1
    32   17   34 1
    33   17   35 1
    34   18   19 1
    35   18   36 1
    36   19   20 1
    37   19   37 1
    38   19   38 1
    39   21   22 1
    40   21   23 1
    41   21   24 1
@<TRIPOS>MOLECULE
CHEMBL308627
   53    56     0     0     0
SMALL
USER_CHARGES

@<TRIPOS>ATOM
      1 C1         -0.0188    1.5261    0.0230 C.3       1 <0>        -0.1469
      2 C2          0.0020   -0.0037    0.0120 C.3       1 <0>        -0.0636
      3 C3          0.7452   -0.4921   -1.2323 C.3       1 <0>        -0.1160
      4 C4          2.1033    0.2142   -1.2872 C.3       1 <0>        -0.1368
      5 C5          2.7759    0.1609    0.0535 C.2       1 <0>         0.5167
      6 O1          3.9641    0.3986    0.1056 O.2       1 <0>        -0.5566
      7 N1          2.1431   -0.1325    1.1930 N.am      1 <0>        -0.6005
      8 C6          0.7401   -0.5100    1.2519 C.3       1 <0>         0.1517
      9 C7          0.0637    0.0399    2.5060 C.3       1 <0>        -0.1314
     10 C8         -1.3930   -0.4381    2.5322 C.3       1 <0>        -0.1091
     11 C9         -1.6561   -1.3303    1.3191 C.3       1 <0>        -0.0824
     12 C10        -1.4293   -0.5293    0.0260 C.3       1 <0>        -0.0652
     13 C11        -1.7053   -1.3661   -1.2176 C.3       1 <0>        -0.1196
     14 C12        -3.1191   -1.9718   -1.1785 C.3       1 <0>        -0.0932
     15 C13        -3.2238   -2.7962    0.0890 C.3       1 <0>        -0.0584
     16 C14        -3.0962   -1.8054    1.3041 C.3       1 <0>        -0.0778
     17 C15        -3.5195   -2.6964    2.4770 C.3       1 <0>        -0.1145
     18 C16        -4.7393   -3.4688    1.9042 C.3       1 <0>        -0.1557
     19 C17        -4.5574   -3.4899    0.3449 C.3       1 <0>         0.1096
     20 O2         -5.6216   -2.7579   -0.2664 O.3       1 <0>        -0.5616
     21 C18        -2.0909   -3.8237    0.1314 C.3       1 <0>        -0.1494
     22 C19         2.9006   -0.0713    2.4455 C.3       1 <0>         0.0688
     23 H1          1.0037    1.9035    0.0176 H         1 <0>         0.0553
     24 H2         -0.5447    1.8887   -0.8602 H         1 <0>         0.0614
     25 H3         -0.5305    1.8760    0.9196 H         1 <0>         0.0624
     26 H4          0.8936   -1.5703   -1.1724 H         1 <0>         0.0723
     27 H5          0.1680   -0.2489   -2.1244 H         1 <0>         0.0852
     28 H6          2.7353   -0.2768   -2.0273 H         1 <0>         0.0993
     29 H7          1.9570    1.2550   -1.5760 H         1 <0>         0.1014
     30 H8          0.6706   -1.5974    1.2809 H         1 <0>         0.0730
     31 H9          0.5839   -0.3252    3.3915 H         1 <0>         0.0701
     32 H10         0.0903    1.1294    2.4875 H         1 <0>         0.0732
     33 H11        -1.5735   -1.0043    3.4459 H         1 <0>         0.0680
     34 H12        -2.0592    0.4241    2.5008 H         1 <0>         0.0660
     35 H13        -0.9868   -2.1902    1.3447 H         1 <0>         0.0830
     36 H14        -2.1144    0.3184    0.0233 H         1 <0>         0.0744
     37 H15        -1.6116   -0.7346   -2.1011 H         1 <0>         0.0660
     38 H16        -0.9732   -2.1714   -1.2761 H         1 <0>         0.0685
     39 H17        -3.8632   -1.1754   -1.1650 H         1 <0>         0.0705
     40 H18        -3.2733   -2.6093   -2.0491 H         1 <0>         0.0613
     41 H19        -3.7738   -0.9592    1.1905 H         1 <0>         0.0801
     42 H20        -2.7189   -3.3852    2.7468 H         1 <0>         0.0684
     43 H21        -3.8143   -2.0913    3.3344 H         1 <0>         0.0663
     44 H22        -4.7433   -4.4925    2.2787 H         1 <0>         0.0645
     45 H23        -5.6651   -2.9648    2.1816 H         1 <0>         0.0733
     46 H24        -4.5318   -4.5105   -0.0371 H         1 <0>         0.0587
     47 H25        -6.4952   -3.1520   -0.1370 H         1 <0>         0.3759
     48 H26        -1.1336   -3.3138    0.0229 H         1 <0>         0.0707
     49 H27        -2.1151   -4.3521    1.0844 H         1 <0>         0.0572
     50 H28        -2.2168   -4.5372   -0.6830 H         1 <0>         0.0554
     51 H29         3.9285    0.2235    2.2344 H         1 <0>         0.0901
     52 H30         2.4425    0.6596    3.1118 H         1 <0>         0.0611
     53 H31         2.8943   -1.0516    2.9222 H         1 <0>         0.0590
@<TRIPOS>BOND
     1    1    2 1
     2    1   23 1
     3    1   24 1
     4    1   25 1
     5    2    8 1
     6    2   12 1
     7    2    3 1
     8    3    4 1
     9    3   26 1
    10    3   27 1
    11    4    5 1
    12    4   28 1
    13    4   29 1
    14    5    6 2
    15    5    7 am
    16    7    8 1
    17    7   22 1
    18    8    9 1
    19    8   30 1
    20    9   10 1
    21    9   31 1
    22    9   32 1
    23   10   11 1
    24   10   33 1
    25   10   34 1
    26   11   16 1
    27   11   12 1
    28   11   35 1
    29   12   13 1
    30   12   36 1
    31   13   14 1
    32   13   37 1
    33   13   38 1
    34   14   15 1
    35   14   39 1
    36   14   40 1
    37   15   19 1
    38   15   16 1
    39   15   21 1
    40   16   17 1
    41   16   41 1
    42   17   18 1
    43   17   42 1
    44   17   43 1
    45   18   19 1
    46   18   44 1
    47   18   45 1
    48   19   20 1
    49   19   46 1
    50   20   47 1
    51   21   48 1
    52   21   49 1
    53   21   50 1
    54   22   51 1
    55   22   52 1
    56   22   53 1
@<TRIPOS>MOLECULE
CHEMBL74599
   49    52     0     0     0
SMALL
USER_CHARGES

@<TRIPOS>ATOM
      1 C1          0.0101    1.5252    0.0265 C.3       1 <0>        -0.1544
      2 C2          0.0328   -0.0046    0.0188 C.3       1 <0>        -0.0505
      3 C3         -1.4031   -0.5375    0.0293 C.3       1 <0>        -0.1078
      4 C4         -2.1476    0.0103    1.2500 C.3       1 <0>        -0.1722
      5 C5         -1.3526   -0.3394    2.4890 C.2       1 <0>         0.3607
      6 O1         -1.8746   -0.8943    3.4259 O.2       1 <0>        -0.4582
      7 C6          0.1142    0.0255    2.5199 C.3       1 <0>        -0.1686
      8 C7          0.7831   -0.5106    1.2518 C.3       1 <0>        -0.0675
      9 C8          2.2304   -0.0135    1.2174 C.3       1 <0>        -0.1157
     10 C9          2.9209   -0.5175   -0.0504 C.3       1 <0>        -0.1139
     11 C10         2.1780    0.0197   -1.2752 C.3       1 <0>        -0.0746
     12 C11         0.7329   -0.4990   -1.2491 C.3       1 <0>        -0.0689
     13 C12        -0.0442   -0.0473   -2.4812 C.3       1 <0>        -0.1214
     14 C13         0.6751   -0.4557   -3.7779 C.3       1 <0>        -0.0978
     15 C14         2.0637    0.1497   -3.7343 C.3       1 <0>        -0.1249
     16 C15         2.8200   -0.5008   -2.5484 C.3       1 <0>        -0.0797
     17 C16         4.2528   -0.0221   -2.8144 C.3       1 <0>        -0.1116
     18 C17         4.3735   -0.1635   -4.3565 C.3       1 <0>        -0.1848
     19 C18         2.9575   -0.1144   -4.9095 C.2       1 <0>         0.3795
     20 O2          2.6221   -0.2564   -6.0609 O.2       1 <0>        -0.4393
     21 C19         1.9599    1.6575   -3.4958 C.3       1 <0>        -0.1432
     22 H1          1.0321    1.9038    0.0102 H         1 <0>         0.0643
     23 H2         -0.5247    1.8851   -0.8524 H         1 <0>         0.0611
     24 H3         -0.4932    1.8766    0.9272 H         1 <0>         0.0581
     25 H4         -1.9143   -0.2205   -0.8797 H         1 <0>         0.0808
     26 H5         -1.3855   -1.6265    0.0737 H         1 <0>         0.0671
     27 H6         -2.2416    1.0931    1.1675 H         1 <0>         0.1007
     28 H7         -3.1378   -0.4413    1.3095 H         1 <0>         0.0873
     29 H8          0.2203    1.1097    2.5569 H         1 <0>         0.1010
     30 H9          0.5830   -0.4197    3.3975 H         1 <0>         0.0878
     31 H10         0.7679   -1.6004    1.2661 H         1 <0>         0.0753
     32 H11         2.2396    1.0764    1.2262 H         1 <0>         0.0686
     33 H12         2.7626   -0.3865    2.0925 H         1 <0>         0.0647
     34 H13         3.9527   -0.1662   -0.0673 H         1 <0>         0.0666
     35 H14         2.9061   -1.6073   -0.0645 H         1 <0>         0.0630
     36 H15         2.1918    1.1096   -1.2702 H         1 <0>         0.0882
     37 H16         0.7488   -1.5889   -1.2388 H         1 <0>         0.0692
     38 H17        -1.0348   -0.5017   -2.4645 H         1 <0>         0.0680
     39 H18        -0.1500    1.0373   -2.4583 H         1 <0>         0.0725
     40 H19         0.7459   -1.5418   -3.8362 H         1 <0>         0.0654
     41 H20         0.1303   -0.0720   -4.6405 H         1 <0>         0.0697
     42 H21         2.7492   -1.5875   -2.5951 H         1 <0>         0.0824
     43 H22         4.3764    1.0173   -2.5102 H         1 <0>         0.0780
     44 H23         4.9752   -0.6631   -2.3092 H         1 <0>         0.0771
     45 H24         4.9619    0.6597   -4.7619 H         1 <0>         0.0981
     46 H25         4.8400   -1.1158   -4.6086 H         1 <0>         0.0973
     47 H26         1.3708    1.8436   -2.5979 H         1 <0>         0.0820
     48 H27         2.9588    2.0747   -3.3681 H         1 <0>         0.0623
     49 H28         1.4763    2.1283   -4.3517 H         1 <0>         0.0582
@<TRIPOS>BOND
     1    1    2 1
     2    1   22 1
     3    1   23 1
     4    1   24 1
     5    2    8 1
     6    2   12 1
     7    2    3 1
     8    3    4 1
     9    3   25 1
    10    3   26 1
    11    4    5 1
    12    4   27 1
    13    4   28 1
    14    5    6 2
    15    5    7 1
    16    7    8 1
    17    7   29 1
    18    7   30 1
    19    8    9 1
    20    8   31 1
    21    9   10 1
    22    9   32 1
    23    9   33 1
    24   10   11 1
    25   10   34 1
    26   10   35 1
    27   11   16 1
    28   11   12 1
    29   11   36 1
    30   12   13 1
    31   12   37 1
    32   13   14 1
    33   13   38 1
    34   13   39 1
    35   14   15 1
    36   14   40 1
    37   14   41 1
    38   15   19 1
    39   15   16 1
    40   15   21 1
    41   16   17 1
    42   16   42 1
    43   17   18 1
    44   17   43 1
    45   17   44 1
    46   18   19 1
    47   18   45 1
    48   18   46 1
    49   19   20 2
    50   21   47 1
    51   21   48 1
    52   21   49 1
@<TRIPOS>MOLECULE
CHEMBL184313
   59    62     0     0     0
SMALL
USER_CHARGES

@<TRIPOS>ATOM
      1 C1         -0.2510    1.5218    0.1631 C.3       1 <0>        -0.1545
      2 C2         -0.2303   -0.0081    0.1547 C.3       1 <0>        -0.1253
      3 C3          0.6259   -0.5129    1.3179 C.3       1 <0>        -0.1203
      4 C4          0.6466   -2.0427    1.3095 C.3       1 <0>        -0.1192
      5 C5          1.5028   -2.5476    2.4727 C.3       1 <0>        -0.1146
      6 C6          1.5233   -4.0555    2.4644 C.3       1 <0>        -0.0613
      7 H1          0.4582   -4.3912    2.4727 H         1 <0>         0.0753
      8 C7          2.1485   -4.6442    1.1987 C.3       1 <0>        -0.0962
      9 C8          1.8527   -6.1290    1.1379 C.3       1 <0>        -0.0480
     10 C9          0.3551   -6.4241    0.9516 C.3       1 <0>         0.1077
     11 H2         -0.2543   -5.7631    1.5683 H         1 <0>         0.0620
     12 C10         0.1985   -7.8907    1.4120 C.3       1 <0>        -0.1584
     13 C11         1.4102   -8.2062    2.3061 C.3       1 <0>        -0.1209
     14 C12         2.2448   -6.9018    2.4019 C.3       1 <0>        -0.0682
     15 C13         1.8151   -6.2059    3.7011 C.3       1 <0>        -0.0531
     16 C14         2.1911   -4.7376    3.6343 C.2       1 <0>        -0.0476
     17 C15         3.0853   -4.2052    4.4455 C.2       1 <0>        -0.1186
     18 C16         3.8294   -2.9239    4.1494 C.3       1 <0>        -0.0725
     19 C17         5.3022   -3.0572    4.5560 C.3       1 <0>        -0.1704
     20 C18         5.4133   -3.5750    5.9619 C.2       1 <0>         0.3889
     21 O1          6.2601   -3.1312    6.7066 O.2       1 <0>        -0.4685
     22 C19         4.5312   -4.5713    6.4130 C.2       1 <0>        -0.2509
     23 C20         3.4584   -4.9149    5.6780 C.2       1 <0>         0.0223
     24 C21         2.5695   -6.0640    6.0992 C.3       1 <0>        -0.0974
     25 C22         2.4073   -6.9608    4.8737 C.3       1 <0>        -0.1116
     26 O2         -0.0139   -6.2891   -0.4245 O.3       1 <0>        -0.5591
     27 C23         2.6179   -6.7148   -0.0554 C.3       1 <0>        -0.1337
     28 H3          0.7659    1.8995    0.0565 H         1 <0>         0.0535
     29 H4         -0.8610    1.8814   -0.6656 H         1 <0>         0.0533
     30 H5         -0.6727    1.8743    1.1044 H         1 <0>         0.0531
     31 H6         -1.2471   -0.3858    0.2613 H         1 <0>         0.0596
     32 H7          0.1914   -0.3605   -0.7866 H         1 <0>         0.0606
     33 H8          1.6428   -0.1351    1.2113 H         1 <0>         0.0615
     34 H9          0.2042   -0.1604    2.2592 H         1 <0>         0.0605
     35 H10        -0.3702   -2.4205    1.4161 H         1 <0>         0.0597
     36 H11         1.0684   -2.3952    0.3682 H         1 <0>         0.0661
     37 H12         2.5197   -2.1698    2.3660 H         1 <0>         0.0727
     38 H13         1.0811   -2.1951    3.4139 H         1 <0>         0.0669
     39 H14         1.7264   -4.1587    0.3236 H         1 <0>         0.0794
     40 H15         3.2255   -4.4971    1.2248 H         1 <0>         0.0673
     41 H16        -0.7250   -8.0025    1.9850 H         1 <0>         0.0644
     42 H17         0.1800   -8.5583    0.5501 H         1 <0>         0.0753
     43 H18         1.0730   -8.5118    3.2975 H         1 <0>         0.0696
     44 H19         2.0055   -9.0051    1.8620 H         1 <0>         0.0673
     45 H20         3.3184   -7.1175    2.4131 H         1 <0>         0.0861
     46 H21         0.7318   -6.2509    3.7663 H         1 <0>         0.0781
     47 H22         3.8341   -2.7323    3.0721 H         1 <0>         0.0886
     48 H23         3.3751   -2.0953    4.6841 H         1 <0>         0.0794
     49 H24         5.7979   -3.7495    3.8747 H         1 <0>         0.0976
     50 H25         5.7837   -2.0811    4.4886 H         1 <0>         0.0949
     51 H26         4.7187   -5.0630    7.3572 H         1 <0>         0.1349
     52 H27         3.0396   -6.6184    6.9075 H         1 <0>         0.0846
     53 H28         1.6006   -5.6826    6.4120 H         1 <0>         0.0865
     54 H29         1.7569   -7.7969    5.1326 H         1 <0>         0.0761
     55 H30         3.3868   -7.3507    4.5934 H         1 <0>         0.0695
     56 H31        -0.9486   -6.4640   -0.6001 H         1 <0>         0.3766
     57 H32         3.6874   -6.5597    0.0872 H         1 <0>         0.0500
     58 H33         2.4125   -7.7827   -0.1300 H         1 <0>         0.0546
     59 H34         2.2978   -6.2184   -0.9715 H         1 <0>         0.0659
@<TRIPOS>BOND
     1    1    2 1
     2    1   28 1
     3    1   29 1
     4    1   30 1
     5    2    3 1
     6    2   31 1
     7    2   32 1
     8    3    4 1
     9    3   33 1
    10    3   34 1
    11    4    5 1
    12    4   35 1
    13    4   36 1
    14    5    6 1
    15    5   37 1
    16    5   38 1
    17    6    7 1
    18    6   16 1
    19    6    8 1
    20    8    9 1
    21    8   39 1
    22    8   40 1
    23    9   14 1
    24    9   10 1
    25    9   27 1
    26   10   11 1
    27   10   12 1
    28   10   26 1
    29   12   13 1
    30   12   41 1
    31   12   42 1
    32   13   14 1
    33   13   43 1
    34   13   44 1
    35   14   15 1
    36   14   45 1
    37   15   25 1
    38   15   16 1
    39   15   46 1
    40   16   17 2
    41   17   23 1
    42   17   18 1
    43   18   19 1
    44   18   47 1
    45   18   48 1
    46   19   20 1
    47   19   49 1
    48   19   50 1
    49   20   21 2
    50   20   22 1
    51   22   23 2
    52   22   51 1
    53   23   24 1
    54   24   25 1
    55   24   52 1
    56   24   53 1
    57   25   54 1
    58   25   55 1
    59   26   56 1
    60   27   57 1
    61   27   58 1
    62   27   59 1
@<TRIPOS>MOLECULE
CHEMBL184313__1
   59    62     0     0     0
SMALL
USER_CHARGES

@<TRIPOS>ATOM
      1 C1         -0.3276    1.4956    4.7723 C.3       1 <0>        -0.1542
      2 C2         -0.3072   -0.0342    4.7636 C.3       1 <0>        -0.1253
      3 C3          0.5894   -0.5258    3.6255 C.3       1 <0>        -0.1193
      4 C4          0.6098   -2.0557    3.6168 C.3       1 <0>        -0.1222
      5 C5          1.5064   -2.5473    2.4787 C.3       1 <0>        -0.1301
      6 C6          1.5269   -4.0771    2.4700 C.3       1 <0>        -0.0633
      7 H1          0.5057   -4.4582    2.4803 H         1 <0>         0.0909
      8 C7          2.2492   -4.5750    1.2207 C.3       1 <0>        -0.1053
      9 C8          3.6982   -4.0751    1.2157 C.3       1 <0>        -0.0406
     10 C9          4.4076   -4.8062    0.0430 C.3       1 <0>         0.1028
     11 H2          3.6896   -5.0362   -0.7442 H         1 <0>         0.0578
     12 C10         4.9825   -6.1083    0.6321 C.3       1 <0>        -0.1590
     13 C11         4.6465   -6.0960    2.1420 C.3       1 <0>        -0.1164
     14 C12         4.4484   -4.6012    2.4488 C.3       1 <0>        -0.0704
     15 C13         3.7525   -4.3547    3.7650 C.3       1 <0>        -0.0428
     16 C14         2.2746   -4.5854    3.6878 C.2       1 <0>        -0.0400
     17 C15         1.5828   -5.2098    4.6358 C.2       1 <0>        -0.1352
     18 C16         0.0933   -5.4241    4.5016 C.3       1 <0>        -0.0768
     19 C17        -0.2402   -6.8455    4.9650 C.3       1 <0>        -0.1659
     20 C18         0.3738   -7.1058    6.3138 C.2       1 <0>         0.3877
     21 O1         -0.2251   -7.7911    7.1183 O.2       1 <0>        -0.4721
     22 C19         1.6273   -6.5721    6.6613 C.2       1 <0>        -0.2525
     23 C20         2.2443   -5.6857    5.8519 C.2       1 <0>         0.0293
     24 C21         3.6176   -5.1428    6.1617 C.3       1 <0>        -0.0959
     25 C22         4.4329   -5.1545    4.8667 C.3       1 <0>        -0.1134
     26 O2          5.4618   -3.9934   -0.4766 O.3       1 <0>        -0.5610
     27 C23         3.7790   -2.5517    1.0990 C.3       1 <0>        -0.1409
     28 H3         -0.7159    1.8592    3.8209 H         1 <0>         0.0532
     29 H4         -0.9663    1.8459    5.5831 H         1 <0>         0.0530
     30 H5          0.6849    1.8717    4.9190 H         1 <0>         0.0530
     31 H6          0.0811   -0.3978    5.7150 H         1 <0>         0.0593
     32 H7         -1.3197   -0.4103    4.6168 H         1 <0>         0.0598
     33 H8          0.2011   -0.1623    2.6741 H         1 <0>         0.0602
     34 H9          1.6019   -0.1498    3.7722 H         1 <0>         0.0596
     35 H10         0.9981   -2.4193    4.5682 H         1 <0>         0.0618
     36 H11        -0.4027   -2.4317    3.4700 H         1 <0>         0.0586
     37 H12         1.1182   -2.1837    1.5273 H         1 <0>         0.0673
     38 H13         2.5189   -2.1713    2.6254 H         1 <0>         0.0889
     39 H14         2.2429   -5.6649    1.2098 H         1 <0>         0.0678
     40 H15         1.7356   -4.2035    0.3340 H         1 <0>         0.0690
     41 H16         4.5194   -6.9712    0.1535 H         1 <0>         0.0675
     42 H17         6.0629   -6.1373    0.4902 H         1 <0>         0.0736
     43 H18         3.7299   -6.6531    2.3363 H         1 <0>         0.0690
     44 H19         5.4745   -6.5014    2.7234 H         1 <0>         0.0690
     45 H20         5.4275   -4.1239    2.4878 H         1 <0>         0.0768
     46 H21         3.8907   -3.3005    4.0051 H         1 <0>         0.0809
     47 H22        -0.4375   -4.7028    5.1229 H         1 <0>         0.0792
     48 H23        -0.2017   -5.3003    3.4597 H         1 <0>         0.0908
     49 H24        -1.3222   -6.9594    5.0322 H         1 <0>         0.0937
     50 H25         0.1530   -7.5624    4.2442 H         1 <0>         0.0980
     51 H26         2.1004   -6.8738    7.5841 H         1 <0>         0.1335
     52 H27         3.5348   -4.1223    6.5358 H         1 <0>         0.0882
     53 H28         4.1028   -5.7716    6.9082 H         1 <0>         0.0844
     54 H29         4.5555   -6.1851    4.5335 H         1 <0>         0.0719
     55 H30         5.4162   -4.7261    5.0610 H         1 <0>         0.0755
     56 H31         5.9430   -4.3963   -1.2122 H         1 <0>         0.3760
     57 H32         3.8610   -2.1149    2.0943 H         1 <0>         0.0626
     58 H33         4.6538   -2.2784    0.5090 H         1 <0>         0.0721
     59 H34         2.8797   -2.1765    0.6105 H         1 <0>         0.0599
@<TRIPOS>BOND
     1    1    2 1
     2    1   28 1
     3    1   29 1
     4    1   30 1
     5    2    3 1
     6    2   31 1
     7    2   32 1
     8    3    4 1
     9    3   33 1
    10    3   34 1
    11    4    5 1
    12    4   35 1
    13    4   36 1
    14    5    6 1
    15    5   37 1
    16    5   38 1
    17    6    7 1
    18    6   16 1
    19    6    8 1
    20    8    9 1
    21    8   39 1
    22    8   40 1
    23    9   14 1
    24    9   10 1
    25    9   27 1
    26   10   11 1
    27   10   12 1
    28   10   26 1
    29   12   13 1
    30   12   41 1
    31   12   42 1
    32   13   14 1
    33   13   43 1
    34   13   44 1
    35   14   15 1
    36   14   45 1
    37   15   25 1
    38   15   16 1
    39   15   46 1
    40   16   17 2
    41   17   23 1
    42   17   18 1
    43   18   19 1
    44   18   47 1
    45   18   48 1
    46   19   20 1
    47   19   49 1
    48   19   50 1
    49   20   21 2
    50   20   22 1
    51   22   23 2
    52   22   51 1
    53   23   24 1
    54   24   25 1
    55   24   52 1
    56   24   53 1
    57   25   54 1
    58   25   55 1
    59   26   56 1
    60   27   57 1
    61   27   58 1
    62   27   59 1
@<TRIPOS>MOLECULE
CHEMBL184313__2
   59    62     0     0     0
SMALL
USER_CHARGES

@<TRIPOS>ATOM
      1 C1          0.0595    1.5439   -0.0690 C.3       1 <0>        -0.1543
      2 C2          0.0710    0.0139   -0.0724 C.3       1 <0>        -0.1250
      3 C3          0.7802   -0.4935    1.1847 C.3       1 <0>        -0.1192
      4 C4          0.7918   -2.0235    1.1813 C.3       1 <0>        -0.1207
      5 C5          1.5010   -2.5310    2.4384 C.3       1 <0>        -0.1653
      6 C6          1.5126   -4.0609    2.4350 C.3       1 <0>        -0.0465
      7 H1          0.4837   -4.4207    2.4308 H         1 <0>         0.0822
      8 C7          2.2139   -4.5488    1.1612 C.3       1 <0>        -0.1080
      9 C8          3.7102   -4.4356    1.4217 C.3       1 <0>        -0.0508
     10 C9          4.6059   -4.7056    0.2135 C.3       1 <0>         0.1110
     11 H2          4.0875   -5.3394   -0.5061 H         1 <0>         0.0577
     12 C10         5.8488   -5.4386    0.7748 C.3       1 <0>        -0.1573
     13 C11         5.5899   -5.6440    2.2919 C.3       1 <0>        -0.1119
     14 C12         4.0630   -5.5940    2.3890 C.3       1 <0>        -0.0803
     15 C13         3.4570   -5.3467    3.7235 C.3       1 <0>        -0.0440
     16 C14         2.1903   -4.5437    3.6831 C.2       1 <0>        -0.0386
     17 C15         1.6564   -4.2229    4.8730 C.2       1 <0>        -0.1472
     18 C16         0.3702   -3.4360    4.9448 C.3       1 <0>        -0.0757
     19 C17        -0.5391   -4.0933    5.9891 C.3       1 <0>        -0.1668
     20 C18         0.2251   -4.3066    7.2670 C.2       1 <0>         0.3867
     21 O1         -0.3584   -4.2061    8.3276 O.2       1 <0>        -0.4738
     22 C19         1.5928   -4.6189    7.2683 C.2       1 <0>        -0.2581
     23 C20         2.3136   -4.6143    6.1166 C.2       1 <0>         0.0326
     24 C21         3.7736   -4.9854    6.1497 C.3       1 <0>        -0.0986
     25 C22         4.3989   -4.7730    4.7712 C.3       1 <0>        -0.1122
     26 O2          4.9916   -3.4745   -0.4010 O.3       1 <0>        -0.5587
     27 C23         4.0396   -3.0848    2.0602 C.3       1 <0>        -0.1363
     28 H3          1.0843    1.9149   -0.0552 H         1 <0>         0.0534
     29 H4         -0.4458    1.9054   -0.9646 H         1 <0>         0.0528
     30 H5         -0.4683    1.9013    0.8152 H         1 <0>         0.0529
     31 H6         -0.9538   -0.3571   -0.0862 H         1 <0>         0.0593
     32 H7          0.5988   -0.3434   -0.9566 H         1 <0>         0.0601
     33 H8          1.8051   -0.1225    1.1985 H         1 <0>         0.0609
     34 H9          0.2525   -0.1361    2.0689 H         1 <0>         0.0594
     35 H10        -0.2330   -2.3945    1.1675 H         1 <0>         0.0575
     36 H11         1.3196   -2.3809    0.2971 H         1 <0>         0.0677
     37 H12         2.5259   -2.1599    2.4522 H         1 <0>         0.1071
     38 H13         0.9733   -2.1736    3.3226 H         1 <0>         0.0717
     39 H14         1.9468   -5.5866    0.9617 H         1 <0>         0.0651
     40 H15         1.9332   -3.9204    0.3160 H         1 <0>         0.0812
     41 H16         5.9682   -6.4034    0.2818 H         1 <0>         0.0674
     42 H17         6.7406   -4.8296    0.6267 H         1 <0>         0.0740
     43 H18         5.9656   -6.6133    2.6195 H         1 <0>         0.0677
     44 H19         6.0397   -4.8385    2.8724 H         1 <0>         0.0746
     45 H20         3.6519   -6.5224    1.9925 H         1 <0>         0.0736
     46 H21         3.1576   -6.3246    4.1006 H         1 <0>         0.0723
     47 H22         0.5841   -2.4084    5.2387 H         1 <0>         0.0800
     48 H23        -0.1211   -3.4455    3.9718 H         1 <0>         0.0919
     49 H24        -1.3953   -3.4470    6.1824 H         1 <0>         0.0938
     50 H25        -0.8893   -5.0540    5.6115 H         1 <0>         0.0980
     51 H26         2.0804   -4.8669    8.1995 H         1 <0>         0.1323
     52 H27         4.2886   -4.3621    6.8806 H         1 <0>         0.0906
     53 H28         3.8740   -6.0325    6.4355 H         1 <0>         0.0895
     54 H29         5.3590   -5.2867    4.7229 H         1 <0>         0.0813
     55 H30         4.5421   -3.7073    4.5925 H         1 <0>         0.0740
     56 H31         5.5618   -3.5826   -1.1745 H         1 <0>         0.3757
     57 H32         3.6010   -3.0374    3.0569 H         1 <0>         0.0721
     58 H33         5.1213   -2.9717    2.1335 H         1 <0>         0.0518
     59 H34         3.6313   -2.2829    1.4450 H         1 <0>         0.0694
@<TRIPOS>BOND
     1    1    2 1
     2    1   28 1
     3    1   29 1
     4    1   30 1
     5    2    3 1
     6    2   31 1
     7    2   32 1
     8    3    4 1
     9    3   33 1
    10    3   34 1
    11    4    5 1
    12    4   35 1
    13    4   36 1
    14    5    6 1
    15    5   37 1
    16    5   38 1
    17    6    7 1
    18    6   16 1
    19    6    8 1
    20    8    9 1
    21    8   39 1
    22    8   40 1
    23    9   14 1
    24    9   10 1
    25    9   27 1
    26   10   11 1
    27   10   12 1
    28   10   26 1
    29   12   13 1
    30   12   41 1
    31   12   42 1
    32   13   14 1
    33   13   43 1
    34   13   44 1
    35   14   15 1
    36   14   45 1
    37   15   25 1
    38   15   16 1
    39   15   46 1
    40   16   17 2
    41   17   23 1
    42   17   18 1
    43   18   19 1
    44   18   47 1
    45   18   48 1
    46   19   20 1
    47   19   49 1
    48   19   50 1
    49   20   21 2
    50   20   22 1
    51   22   23 2
    52   22   51 1
    53   23   24 1
    54   24   25 1
    55   24   52 1
    56   24   53 1
    57   25   54 1
    58   25   55 1
    59   26   56 1
    60   27   57 1
    61   27   58 1
    62   27   59 1
@<TRIPOS>MOLECULE
CHEMBL184313__3
   59    62     0     0     0
SMALL
USER_CHARGES

@<TRIPOS>ATOM
      1 C1         -0.0187    1.5258    0.0104 C.3       1 <0>        -0.1543
      2 C2          0.0021   -0.0041    0.0020 C.3       1 <0>        -0.1254
      3 C3          0.7421   -0.5109    1.2415 C.3       1 <0>        -0.1197
      4 C4          0.7628   -2.0407    1.2331 C.3       1 <0>        -0.1223
      5 C5          1.5028   -2.5476    2.4727 C.3       1 <0>        -0.1150
      6 C6          1.5236   -4.0779    2.4642 C.3       1 <0>        -0.0542
      7 H1          0.4701   -4.4119    2.3800 H         1 <0>         0.0793
      8 C7          2.2301   -4.5978    1.2174 C.3       1 <0>        -0.1021
      9 C8          3.7066   -4.8190    1.4274 C.3       1 <0>        -0.0484
     10 C9          4.3900   -5.6425    0.3187 C.3       1 <0>         0.1049
     11 H2          3.6999   -6.3872   -0.0661 H         1 <0>         0.0585
     12 C10         5.5936   -6.3157    1.0206 C.3       1 <0>        -0.1569
     13 C11         5.3927   -6.1045    2.5453 C.3       1 <0>        -0.1132
     14 C12         3.9091   -5.7316    2.6574 C.3       1 <0>        -0.0794
     15 C13         3.5168   -4.9740    3.9121 C.3       1 <0>        -0.0421
     16 C14         2.0590   -4.5983    3.7741 C.2       1 <0>        -0.0413
     17 C15         1.2140   -4.7092    4.8037 C.2       1 <0>        -0.1335
     18 C16        -0.2287   -4.2666    4.6981 C.3       1 <0>        -0.0775
     19 C17        -1.1191   -5.3405    5.3354 C.3       1 <0>        -0.1678
     20 C18        -0.6240   -5.6514    6.7223 C.2       1 <0>         0.3875
     21 O1         -1.4240   -5.9168    7.5958 O.2       1 <0>        -0.4707
     22 C19         0.7499   -5.6381    7.0190 C.2       1 <0>        -0.2522
     23 C20         1.6509   -5.2280    6.1015 C.2       1 <0>         0.0285
     24 C21         3.1333   -5.2930    6.3787 C.3       1 <0>        -0.0973
     25 C22         3.7992   -5.8537    5.1234 C.3       1 <0>        -0.1129
     26 O2          4.8370   -4.7730   -0.7204 O.3       1 <0>        -0.5575
     27 C23         4.4626   -3.4982    1.5609 C.3       1 <0>        -0.1290
     28 H3          1.0039    1.9031    0.0027 H         1 <0>         0.0533
     29 H4         -0.5459    1.8868   -0.8726 H         1 <0>         0.0532
     30 H5         -0.5289    1.8773    0.9072 H         1 <0>         0.0531
     31 H6         -1.0205   -0.3814    0.0098 H         1 <0>         0.0599
     32 H7          0.5123   -0.3556   -0.8948 H         1 <0>         0.0605
     33 H8          1.7647   -0.1336    1.2338 H         1 <0>         0.0611
     34 H9          0.2319   -0.1594    2.1383 H         1 <0>         0.0602
     35 H10        -0.2598   -2.4180    1.2409 H         1 <0>         0.0605
     36 H11         1.2730   -2.3923    0.3363 H         1 <0>         0.0680
     37 H12         2.5254   -2.1703    2.4649 H         1 <0>         0.0716
     38 H13         0.9926   -2.1961    3.3695 H         1 <0>         0.0648
     39 H14         1.7639   -5.5463    0.9072 H         1 <0>         0.0586
     40 H15         2.0829   -3.8860    0.3918 H         1 <0>         0.0780
     41 H16         5.6106   -7.3816    0.7909 H         1 <0>         0.0660
     42 H17         6.5247   -5.8509    0.6966 H         1 <0>         0.0743
     43 H18         5.5960   -7.0315    3.0865 H         1 <0>         0.0663
     44 H19         6.0327   -5.3069    2.9169 H         1 <0>         0.0719
     45 H20         3.2954   -6.6366    2.5625 H         1 <0>         0.0779
     46 H21         4.1080   -4.0686    4.0173 H         1 <0>         0.0920
     47 H22        -0.3539   -3.3291    5.2480 H         1 <0>         0.0782
     48 H23        -0.5273   -4.1200    3.6680 H         1 <0>         0.0897
     49 H24        -2.1432   -4.9728    5.3886 H         1 <0>         0.0941
     50 H25        -1.0862   -6.2428    4.7264 H         1 <0>         0.0983
     51 H26         1.0872   -5.9600    7.9937 H         1 <0>         0.1342
     52 H27         3.5155   -4.2952    6.5884 H         1 <0>         0.0892
     53 H28         3.3233   -5.9516    7.2254 H         1 <0>         0.0848
     54 H29         3.4147   -6.8540    4.9310 H         1 <0>         0.0679
     55 H30         4.8751   -5.9043    5.2813 H         1 <0>         0.0774
     56 H31         5.2772   -5.2277   -1.4515 H         1 <0>         0.3752
     57 H32         4.0828   -2.9476    2.4216 H         1 <0>         0.0545
     58 H33         5.5249   -3.6999    1.6985 H         1 <0>         0.0549
     59 H34         4.3194   -2.9048    0.6579 H         1 <0>         0.0644
@<TRIPOS>BOND
     1    1    2 1
     2    1   28 1
     3    1   29 1
     4    1   30 1
     5    2    3 1
     6    2   31 1
     7    2   32 1
     8    3    4 1
     9    3   33 1
    10    3   34 1
    11    4    5 1
    12    4   35 1
    13    4   36 1
    14    5    6 1
    15    5   37 1
    16    5   38 1
    17    6    7 1
    18    6   16 1
    19    6    8 1
    20    8    9 1
    21    8   39 1
    22    8   40 1
    23    9   14 1
    24    9   10 1
    25    9   27 1
    26   10   11 1
    27   10   12 1
    28   10   26 1
    29   12   13 1
    30   12   41 1
    31   12   42 1
    32   13   14 1
    33   13   43 1
    34   13   44 1
    35   14   15 1
    36   14   45 1
    37   15   25 1
    38   15   16 1
    39   15   46 1
    40   16   17 2
    41   17   23 1
    42   17   18 1
    43   18   19 1
    44   18   47 1
    45   18   48 1
    46   19   20 1
    47   19   49 1
    48   19   50 1
    49   20   21 2
    50   20   22 1
    51   22   23 2
    52   22   51 1
    53   23   24 1
    54   24   25 1
    55   24   52 1
    56   24   53 1
    57   25   54 1
    58   25   55 1
    59   26   56 1
    60   27   57 1
    61   27   58 1
    62   27   59 1
@<TRIPOS>MOLECULE
CHEMBL562780
   61    65     0     0     0
SMALL
USER_CHARGES

@<TRIPOS>ATOM
      1 C1          0.0332    1.4806   -0.1623 C.3       1 <0>        -0.1282
      2 C2          0.0308   -0.0491   -0.1332 C.3       1 <0>        -0.0386
      3 C3          0.5663   -0.6544   -1.4329 C.3       1 <0>        -0.1101
      4 C4          2.0776   -0.4633   -1.5323 C.3       1 <0>        -0.1141
      5 C5          2.7444   -1.2093   -0.3716 C.3       1 <0>        -0.0627
      6 H1          2.4551   -2.2599   -0.3976 H         1 <0>         0.0727
      7 C6          2.2808   -0.5823    0.9414 C.3       1 <0>        -0.0711
      8 H2          2.5903    0.4627    0.9591 H         1 <0>         0.0767
      9 C7          0.7902   -0.6142    1.0808 C.3       1 <0>        -0.0713
     10 H3          0.5108   -0.0420    1.9655 H         1 <0>         0.0783
     11 C8          0.2523   -2.0417    1.2419 C.3       1 <0>        -0.0946
     12 C9         -1.1300   -2.0454    0.6144 C.2       1 <0>        -0.1399
     13 C10        -1.9544   -3.0802    0.5334 C.2       1 <0>        -0.0985
     14 C11        -1.5042   -4.4197    0.9672 C.ar      1 <0>        -0.1036
     15 C12        -0.2758   -4.5811    1.6181 C.ar      1 <0>        -0.1054
     16 C13         0.0995   -5.8559    2.0039 C.ar      1 <0>        -0.1668
     17 C14        -0.7433   -6.9198    1.7365 C.ar      1 <0>         0.0955
     18 N1         -1.8957   -6.7376    1.1213 N.ar      1 <0>        -0.4831
     19 C15        -2.2993   -5.5432    0.7400 C.ar      1 <0>         0.1087
     20 C16        -1.3919   -0.6403    0.0965 C.3       1 <0>         0.1385
     21 H4         -1.9464   -0.6763   -0.8413 H         1 <0>         0.0641
     22 O1         -2.1019    0.1278    1.0701 O.3       1 <0>        -0.5499
     23 C17         2.9450   -1.3120    2.1126 C.3       1 <0>        -0.1225
     24 C18         4.4635   -1.1693    1.9991 C.3       1 <0>        -0.1268
     25 C19         4.9450   -1.7683    0.6819 C.3       1 <0>         0.1580
     26 H5          6.0220   -1.6206    0.6020 H         1 <0>         0.0729
     27 C20         4.2654   -1.0913   -0.5081 C.3       1 <0>        -0.0465
     28 C21         4.6893   -1.7792   -1.7853 C.2       1 <0>        -0.0830
     29 C22         4.8510   -3.1024   -1.7856 C.2       1 <0>        -0.1969
     30 C23         4.6006   -3.8563   -0.5436 C.2       1 <0>         0.5472
     31 O2          4.3345   -5.0422   -0.5870 O.2       1 <0>        -0.5341
     32 N2          4.6617   -3.2019    0.6351 N.am      1 <0>        -0.6078
     33 C24         4.4453   -3.9503    1.8758 C.3       1 <0>         0.0782
     34 C25         4.6659    0.3849   -0.5445 C.3       1 <0>        -0.1438
     35 H6          1.0606    1.8415   -0.2103 H         1 <0>         0.0569
     36 H7         -0.5153    1.8282   -1.0378 H         1 <0>         0.0549
     37 H8         -0.4441    1.8619    0.7404 H         1 <0>         0.0673
     38 H9          0.3367   -1.7198   -1.4544 H         1 <0>         0.0645
     39 H10         0.0859   -0.1668   -2.2811 H         1 <0>         0.0655
     40 H11         2.4356   -0.8662   -2.4797 H         1 <0>         0.0660
     41 H12         2.3167    0.5983   -1.4701 H         1 <0>         0.0727
     42 H13         0.9013   -2.7475    0.7234 H         1 <0>         0.0841
     43 H14         0.1851   -2.3000    2.2987 H         1 <0>         0.0827
     44 H15        -2.9551   -2.9447    0.1503 H         1 <0>         0.1272
     45 H16         0.3630   -3.7326    1.8139 H         1 <0>         0.1630
     46 H17         1.0406   -6.0186    2.5080 H         1 <0>         0.1345
     47 H18        -0.4528   -7.9159    2.0362 H         1 <0>         0.1551
     48 H19        -3.2519   -5.4333    0.2432 H         1 <0>         0.1556
     49 H20        -2.9946   -0.1963    1.2521 H         1 <0>         0.3781
     50 H21         2.6075   -0.8750    3.0524 H         1 <0>         0.0690
     51 H22         2.6755   -2.3678    2.0837 H         1 <0>         0.0703
     52 H23         4.7315   -0.1134    2.0360 H         1 <0>         0.0847
     53 H24         4.9392   -1.6912    2.8294 H         1 <0>         0.0761
     54 H25         4.8585   -1.2067   -2.6853 H         1 <0>         0.1323
     55 H26         5.1609   -3.6155   -2.6840 H         1 <0>         0.1435
     56 H27         3.3852   -3.9353    2.1289 H         1 <0>         0.0560
     57 H28         4.7718   -4.9813    1.7399 H         1 <0>         0.0762
     58 H29         5.0178   -3.4911    2.6817 H         1 <0>         0.0728
     59 H30         4.3467    0.8708    0.3775 H         1 <0>         0.0692
     60 H31         5.7486    0.4654   -0.6417 H         1 <0>         0.0613
     61 H32         4.1877    0.8702   -1.3954 H         1 <0>         0.0692
@<TRIPOS>BOND
     1    1    2 1
     2    1   35 1
     3    1   36 1
     4    1   37 1
     5    2    9 1
     6    2   20 1
     7    2    3 1
     8    3    4 1
     9    3   38 1
    10    3   39 1
    11    4    5 1
    12    4   40 1
    13    4   41 1
    14    5    6 1
    15    5   27 1
    16    5    7 1
    17    7    8 1
    18    7    9 1
    19    7   23 1
    20    9   10 1
    21    9   11 1
    22   11   12 1
    23   11   42 1
    24   11   43 1
    25   12   13 2
    26   12   20 1
    27   13   14 1
    28   13   44 1
    29   14   19 ar
    30   14   15 ar
    31   15   16 ar
    32   15   45 1
    33   16   17 ar
    34   16   46 1
    35   17   18 ar
    36   17   47 1
    37   18   19 ar
    38   19   48 1
    39   20   21 1
    40   20   22 1
    41   22   49 1
    42   23   24 1
    43   23   50 1
    44   23   51 1
    45   24   25 1
    46   24   52 1
    47   24   53 1
    48   25   26 1
    49   25   32 1
    50   25   27 1
    51   27   28 1
    52   27   34 1
    53   28   29 2
    54   28   54 1
    55   29   30 1
    56   29   55 1
    57   30   31 2
    58   30   32 am
    59   32   33 1
    60   33   56 1
    61   33   57 1
    62   33   58 1
    63   34   59 1
    64   34   60 1
    65   34   61 1
@<TRIPOS>MOLECULE
CHEMBL559878
   64    68     0     0     0
SMALL
USER_CHARGES

@<TRIPOS>ATOM
      1 C1          0.1409    1.2870    0.5216 C.3       1 <0>        -0.1507
      2 C2          0.0585   -0.1844    0.1183 C.3       1 <0>        -0.0413
      3 C3         -1.3667   -0.6563    0.0275 C.3       1 <0>        -0.1004
      4 C4         -1.9355   -1.0176    1.4066 C.3       1 <0>        -0.1063
      5 C5         -1.0240   -0.5800    2.5403 C.3       1 <0>        -0.0700
      6 H1         -0.9333    0.5172    2.5088 H         1 <0>         0.0801
      7 C6          0.3649   -1.1929    2.4268 C.3       1 <0>        -0.0651
      8 H2          0.3027   -2.2668    2.6852 H         1 <0>         0.0697
      9 C7          0.8843   -1.1207    1.0270 C.3       1 <0>        -0.0711
     10 H3          0.8547   -2.1443    0.5955 H         1 <0>         0.0810
     11 C8          2.3045   -0.5866    0.8021 C.3       1 <0>        -0.0870
     12 C9          2.3228   -0.2642   -0.6956 C.2       1 <0>        -0.1399
     13 C10         3.3973    0.0031   -1.4245 C.2       1 <0>        -0.0916
     14 C11         4.7154    0.1491   -0.7720 C.ar      1 <0>        -0.1966
     15 C12         5.8914   -0.2061   -1.4415 C.ar      1 <0>         0.2007
     16 N1          7.0497   -0.0603   -0.8228 N.ar      1 <0>        -0.5211
     17 C13         7.1062    0.4139    0.4117 C.ar      1 <0>         0.4963
     18 N2          6.0171    0.7612    1.0790 N.ar      1 <0>        -0.5628
     19 C14         4.8205    0.6516    0.5295 C.ar      1 <0>         0.1886
     20 O1          8.3140    0.5472    1.0098 O.3       1 <0>        -0.2884
     21 C15         8.3246    1.0632    2.3424 C.3       1 <0>         0.0435
     22 C16         0.8764   -0.3106   -1.1860 C.3       1 <0>         0.1389
     23 H4          0.6634    0.5335   -1.8350 H         1 <0>         0.0667
     24 O2          0.6005   -1.5506   -1.8258 O.3       1 <0>        -0.5470
     25 C17         1.2901   -0.5508    3.4589 C.3       1 <0>        -0.1127
     26 C18         0.7070   -0.8042    4.8510 C.3       1 <0>        -0.1271
     27 C19        -0.7092   -0.2614    4.9804 C.3       1 <0>         0.1624
     28 H5         -1.0889   -0.5688    5.9637 H         1 <0>         0.0661
     29 C20        -1.6293   -0.8684    3.9153 C.3       1 <0>        -0.0448
     30 C21        -2.9863   -0.2075    3.9765 C.2       1 <0>        -0.0825
     31 C22        -3.0818    1.0878    4.2560 C.2       1 <0>        -0.1971
     32 C23        -1.8580    1.8516    4.5428 C.2       1 <0>         0.5448
     33 O3         -1.8551    3.0647    4.4685 O.2       1 <0>        -0.5345
     34 N3         -0.7399    1.1928    4.9281 N.am      1 <0>        -0.6088
     35 C24         0.4236    2.0003    5.3247 C.3       1 <0>         0.0832
     36 C25        -1.7939   -2.3675    4.1513 C.3       1 <0>        -0.1407
     37 H6          1.1865    1.5887    0.5839 H         1 <0>         0.0581
     38 H7         -0.3696    1.8972   -0.2235 H         1 <0>         0.0588
     39 H8         -0.3355    1.4249    1.4923 H         1 <0>         0.0699
     40 H9         -1.9880    0.1239   -0.4332 H         1 <0>         0.0577
     41 H10        -1.4260   -1.5342   -0.6308 H         1 <0>         0.0758
     42 H11        -2.9175   -0.5456    1.5264 H         1 <0>         0.0629
     43 H12        -2.0800   -2.1037    1.4446 H         1 <0>         0.0628
     44 H13         2.4905    0.3054    1.3959 H         1 <0>         0.0809
     45 H14         3.0466   -1.3532    1.0330 H         1 <0>         0.0737
     46 H15         3.3096    0.1141   -2.4952 H         1 <0>         0.1305
     47 H16         5.8529   -0.5940   -2.4487 H         1 <0>         0.1793
     48 H17         3.9366    0.9413    1.0783 H         1 <0>         0.1752
     49 H18         9.3519    1.1189    2.7023 H         1 <0>         0.1060
     50 H19         7.8825    2.0595    2.3498 H         1 <0>         0.0641
     51 H20         7.7473    0.4048    2.9915 H         1 <0>         0.0638
     52 H21         1.0869   -1.6843   -2.6508 H         1 <0>         0.3782
     53 H22         2.2838   -0.9991    3.3870 H         1 <0>         0.0689
     54 H23         1.3629    0.5132    3.2632 H         1 <0>         0.0661
     55 H24         0.6960   -1.8848    5.0278 H         1 <0>         0.0795
     56 H25         1.3572   -0.3702    5.6071 H         1 <0>         0.0739
     57 H26        -3.8762   -0.7968    3.7948 H         1 <0>         0.1316
     58 H27        -4.0508    1.5730    4.2676 H         1 <0>         0.1455
     59 H28         1.0595    2.1723    4.4563 H         1 <0>         0.0560
     60 H29         0.0838    2.9569    5.7214 H         1 <0>         0.0786
     61 H30         0.9899    1.4700    6.0904 H         1 <0>         0.0697
     62 H31        -0.8198   -2.8533    4.0946 H         1 <0>         0.0678
     63 H32        -2.2265   -2.5347    5.1377 H         1 <0>         0.0616
     64 H33        -2.4529   -2.7849    3.3900 H         1 <0>         0.0686
@<TRIPOS>BOND
     1    1    2 1
     2    1   37 1
     3    1   38 1
     4    1   39 1
     5    2    9 1
     6    2   22 1
     7    2    3 1
     8    3    4 1
     9    3   40 1
    10    3   41 1
    11    4    5 1
    12    4   42 1
    13    4   43 1
    14    5    6 1
    15    5   29 1
    16    5    7 1
    17    7    8 1
    18    7    9 1
    19    7   25 1
    20    9   10 1
    21    9   11 1
    22   11   12 1
    23   11   44 1
    24   11   45 1
    25   12   13 2
    26   12   22 1
    27   13   14 1
    28   13   46 1
    29   14   19 ar
    30   14   15 ar
    31   15   16 ar
    32   15   47 1
    33   16   17 ar
    34   17   18 ar
    35   17   20 1
    36   18   19 ar
    37   19   48 1
    38   20   21 1
    39   21   49 1
    40   21   50 1
    41   21   51 1
    42   22   23 1
    43   22   24 1
    44   24   52 1
    45   25   26 1
    46   25   53 1
    47   25   54 1
    48   26   27 1
    49   26   55 1
    50   26   56 1
    51   27   28 1
    52   27   34 1
    53   27   29 1
    54   29   30 1
    55   29   36 1
    56   30   31 2
    57   30   57 1
    58   31   32 1
    59   31   58 1
    60   32   33 2
    61   32   34 am
    62   34   35 1
    63   35   59 1
    64   35   60 1
    65   35   61 1
    66   36   62 1
    67   36   63 1
    68   36   64 1
@<TRIPOS>MOLECULE
CHEMBL72265
   55    59     0     0     0
SMALL
USER_CHARGES

@<TRIPOS>ATOM
      1 C1         -0.0187    1.5258    0.0104 C.3       1 <0>        -0.1489
      2 C2          0.0021   -0.0041    0.0020 C.3       1 <0>        -0.0149
      3 C3         -1.4466   -0.4875    0.1014 C.3       1 <0>        -0.1160
      4 C4         -2.0865    0.1563    1.3344 C.3       1 <0>        -0.1377
      5 C5         -1.1972    0.0251    2.5347 C.2       1 <0>         0.5147
      6 O1         -1.6985    0.1503    3.6320 O.2       1 <0>        -0.5411
      7 N1          0.1173   -0.2225    2.4676 N.am      1 <0>        -0.5551
      8 C6          0.7352   -0.4564    1.2315 C.2       1 <0>         0.1162
      9 C7          1.8805   -1.0943    1.2088 C.2       1 <0>        -0.2054
     10 C8          2.5451   -1.4847   -0.0865 C.3       1 <0>        -0.0654
     11 C9          1.4400   -1.7327   -1.1184 C.3       1 <0>        -0.0706
     12 C10         0.6421   -0.4478   -1.2891 C.3       1 <0>        -0.0719
     13 C11        -0.3796   -0.5852   -2.4167 C.3       1 <0>        -0.1117
     14 C12         0.3642   -0.8091   -3.7494 C.3       1 <0>        -0.1108
     15 C13         1.8371   -0.9443   -3.4124 C.3       1 <0>        -0.0879
     16 C14         2.0225   -2.1185   -2.4618 C.3       1 <0>        -0.0834
     17 C15         3.5402   -2.3440   -2.4792 C.3       1 <0>        -0.1176
     18 C16         3.9129   -2.1194   -3.9704 C.3       1 <0>        -0.1399
     19 C17         2.7629   -1.2873   -4.5688 C.3       1 <0>         0.1085
     20 C18         2.0148   -2.0522   -5.6701 C.3       1 <0>        -0.1518
     21 C19         2.2565   -1.2037   -6.9440 C.3       1 <0>        -0.1552
     22 C20         3.5202   -0.3921   -6.5590 C.3       1 <0>         0.0451
     23 O2          3.3280   -0.1101   -5.1546 O.3       1 <0>        -0.3669
     24 C21         0.9157   -0.2484    3.6957 C.3       1 <0>         0.0697
     25 H1          1.0039    1.9031    0.0027 H         1 <0>         0.0605
     26 H2         -0.5459    1.8868   -0.8726 H         1 <0>         0.0672
     27 H3         -0.5289    1.8773    0.9072 H         1 <0>         0.0557
     28 H4         -1.9945   -0.1918   -0.7933 H         1 <0>         0.0899
     29 H5         -1.4654   -1.5727    0.2022 H         1 <0>         0.0734
     30 H6         -2.2641    1.2130    1.1346 H         1 <0>         0.1059
     31 H7         -3.0388   -0.3329    1.5396 H         1 <0>         0.1042
     32 H8          2.3606   -1.3463    2.1428 H         1 <0>         0.1144
     33 H9          3.1944   -0.6781   -0.4267 H         1 <0>         0.0759
     34 H10         3.1282   -2.3945    0.0567 H         1 <0>         0.0780
     35 H11         0.7798   -2.5246   -0.7646 H         1 <0>         0.0740
     36 H12         1.3465    0.3267   -1.5925 H         1 <0>         0.0800
     37 H13        -1.0314   -1.4354   -2.2160 H         1 <0>         0.0673
     38 H14        -0.9759    0.3250   -2.4809 H         1 <0>         0.0681
     39 H15         0.0061   -1.7210   -4.2272 H         1 <0>         0.0709
     40 H16         0.2100    0.0441   -4.4100 H         1 <0>         0.0671
     41 H17         2.1859   -0.0370   -2.9193 H         1 <0>         0.0890
     42 H18         1.4962   -2.9822   -2.8681 H         1 <0>         0.0754
     43 H19         4.0448   -1.6173   -1.8425 H         1 <0>         0.0760
     44 H20         3.7819   -3.3612   -2.1709 H         1 <0>         0.0682
     45 H21         4.8786   -1.6193   -4.0440 H         1 <0>         0.0775
     46 H22         3.9432   -3.0734   -4.4968 H         1 <0>         0.0641
     47 H23         2.4316   -3.0520   -5.7919 H         1 <0>         0.0750
     48 H24         0.9502   -2.1059   -5.4427 H         1 <0>         0.0892
     49 H25         2.4519   -1.8423   -7.8054 H         1 <0>         0.0782
     50 H26         1.4124   -0.5413   -7.1360 H         1 <0>         0.0759
     51 H27         4.4199   -0.9884   -6.7109 H         1 <0>         0.0590
     52 H28         3.5709    0.5335   -7.1325 H         1 <0>         0.0901
     53 H29         0.2720   -0.0465    4.5518 H         1 <0>         0.0941
     54 H30         1.3748   -1.2304    3.8099 H         1 <0>         0.0671
     55 H31         1.6942    0.5123    3.6391 H         1 <0>         0.0669
@<TRIPOS>BOND
     1    1    2 1
     2    1   25 1
     3    1   26 1
     4    1   27 1
     5    2    8 1
     6    2   12 1
     7    2    3 1
     8    3    4 1
     9    3   28 1
    10    3   29 1
    11    4    5 1
    12    4   30 1
    13    4   31 1
    14    5    6 2
    15    5    7 am
    16    7    8 1
    17    7   24 1
    18    8    9 2
    19    9   10 1
    20    9   32 1
    21   10   11 1
    22   10   33 1
    23   10   34 1
    24   11   16 1
    25   11   12 1
    26   11   35 1
    27   12   13 1
    28   12   36 1
    29   13   14 1
    30   13   37 1
    31   13   38 1
    32   14   15 1
    33   14   39 1
    34   14   40 1
    35   15   19 1
    36   15   16 1
    37   15   41 1
    38   16   17 1
    39   16   42 1
    40   17   18 1
    41   17   43 1
    42   17   44 1
    43   18   19 1
    44   18   45 1
    45   18   46 1
    46   19   23 1
    47   19   20 1
    48   20   21 1
    49   20   47 1
    50   20   48 1
    51   21   22 1
    52   21   49 1
    53   21   50 1
    54   22   23 1
    55   22   51 1
    56   22   52 1
    57   24   53 1
    58   24   54 1
    59   24   55 1
@<TRIPOS>MOLECULE
CHEMBL361445
   42    46     0     0     0
SMALL
USER_CHARGES

@<TRIPOS>ATOM
      1 C1          0.0219    1.2850   -0.7867 C.ar      1 <0>        -0.0946
      2 C2          1.2071    2.0180   -0.7973 C.ar      1 <0>        -0.0851
      3 C3          2.4043    1.4175   -0.5558 C.ar      1 <0>        -0.1143
      4 C4          2.4496    0.0376   -0.2908 C.ar      1 <0>        -0.0080
      5 C5          1.2440   -0.7065   -0.2798 C.ar      1 <0>        -0.0374
      6 C6          0.0279   -0.0527   -0.5339 C.ar      1 <0>        -0.0992
      7 C7          1.2891   -2.0911   -0.0140 C.ar      1 <0>         0.1764
      8 C8          2.5035   -2.6940    0.2298 C.ar      1 <0>        -0.1017
      9 C9          3.6815   -1.9530    0.2165 C.ar      1 <0>        -0.0280
     10 C10         3.6676   -0.6153   -0.0367 C.ar      1 <0>        -0.0210
     11 N1          4.9345    0.1504   -0.0453 N.pl3     1 <0>         0.0300
     12 O1          5.9381   -0.3465   -0.5008 O.2       1 <0>        -0.1413
     13 O2          4.9656    1.2727    0.4033 O.3       1 <0>        -0.1448
     14 N2          0.1107   -2.8453    0.0022 N.am      1 <0>        -0.5382
     15 C11        -0.3789   -3.4480   -1.0884 C.2       1 <0>         0.5345
     16 O3          0.1219   -3.4176   -2.1920 O.2       1 <0>        -0.4559
     17 C12        -1.6560   -4.1738   -0.7251 C.3       1 <0>        -0.1103
     18 H1         -2.5031   -3.7939   -1.2962 H         1 <0>         0.1369
     19 C13        -1.8207   -3.8838    0.7805 C.3       1 <0>        -0.1098
     20 H2         -2.7528   -3.3560    0.9821 H         1 <0>         0.1373
     21 C14        -0.6170   -3.0285    1.1109 C.2       1 <0>         0.5351
     22 O4         -0.3548   -2.5779    2.2054 O.2       1 <0>        -0.4560
     23 C15        -1.7499   -5.2014    1.5620 C.3       1 <0>        -0.0463
     24 C16        -0.3783   -5.8416    1.3084 C.3       1 <0>        -0.1234
     25 C17        -0.2157   -6.1297   -0.1855 C.3       1 <0>        -0.1246
     26 C18        -1.4646   -5.6783   -0.9522 C.3       1 <0>        -0.0446
     27 C19        -2.6412   -6.4014   -0.3143 C.2       1 <0>        -0.1511
     28 C20        -2.8091   -6.1369    0.9986 C.2       1 <0>        -0.1524
     29 H3         -0.9155    1.7863   -0.9774 H         1 <0>         0.1383
     30 H4          1.1751    3.0782   -1.0005 H         1 <0>         0.1409
     31 H5          3.3149    1.9980   -0.5679 H         1 <0>         0.1523
     32 H6         -0.8983   -0.6082   -0.5285 H         1 <0>         0.1281
     33 H7          2.5418   -3.7538    0.4341 H         1 <0>         0.1520
     34 H8          4.6221   -2.4471    0.4105 H         1 <0>         0.1605
     35 H9         -1.9145   -5.0282    2.6255 H         1 <0>         0.1026
     36 H10         0.4067   -5.1591    1.6340 H         1 <0>         0.0625
     37 H11        -0.3037   -6.7739    1.8681 H         1 <0>         0.0829
     38 H12         0.6466   -5.5842   -0.5688 H         1 <0>         0.0609
     39 H13        -0.0645   -7.1988   -0.3348 H         1 <0>         0.0830
     40 H14        -1.3935   -5.9014   -2.0168 H         1 <0>         0.1059
     41 H15        -3.3080   -7.0459   -0.8679 H         1 <0>         0.1324
     42 H16        -3.6021   -6.5593    1.5979 H         1 <0>         0.1356
@<TRIPOS>BOND
     1    1    6 ar
     2    1    2 ar
     3    1   29 1
     4    2    3 ar
     5    2   30 1
     6    3    4 ar
     7    3   31 1
     8    4   10 ar
     9    4    5 ar
    10    5    6 ar
    11    5    7 ar
    12    6   32 1
    13    7    8 ar
    14    7   14 1
    15    8    9 ar
    16    8   33 1
    17    9   10 ar
    18    9   34 1
    19   10   11 1
    20   11   12 2
    21   11   13 1
    22   14   21 am
    23   14   15 am
    24   15   16 2
    25   15   17 1
    26   17   18 1
    27   17   26 1
    28   17   19 1
    29   19   20 1
    30   19   21 1
    31   19   23 1
    32   21   22 2
    33   23   28 1
    34   23   24 1
    35   23   35 1
    36   24   25 1
    37   24   36 1
    38   24   37 1
    39   25   26 1
    40   25   38 1
    41   25   39 1
    42   26   27 1
    43   26   40 1
    44   27   28 2
    45   27   41 1
    46   28   42 1
@<TRIPOS>MOLECULE
CHEMBL361445__1
   42    46     0     0     0
SMALL
USER_CHARGES

@<TRIPOS>ATOM
      1 C1          0.0219    1.2850   -0.7867 C.ar      1 <0>        -0.0950
      2 C2          1.2071    2.0180   -0.7973 C.ar      1 <0>        -0.0855
      3 C3          2.4043    1.4175   -0.5558 C.ar      1 <0>        -0.1143
      4 C4          2.4496    0.0376   -0.2908 C.ar      1 <0>        -0.0082
      5 C5          1.2440   -0.7065   -0.2798 C.ar      1 <0>        -0.0378
      6 C6          0.0279   -0.0527   -0.5339 C.ar      1 <0>        -0.0990
      7 C7          1.2891   -2.0911   -0.0140 C.ar      1 <0>         0.1777
      8 C8          2.5035   -2.6940    0.2298 C.ar      1 <0>        -0.1007
      9 C9          3.6815   -1.9530    0.2165 C.ar      1 <0>        -0.0280
     10 C10         3.6676   -0.6153   -0.0367 C.ar      1 <0>        -0.0217
     11 N1          4.9345    0.1504   -0.0453 N.pl3     1 <0>         0.0302
     12 O1          5.9381   -0.3465   -0.5008 O.2       1 <0>        -0.1418
     13 O2          4.9656    1.2727    0.4033 O.3       1 <0>        -0.1451
     14 N2          0.1107   -2.8453    0.0022 N.am      1 <0>        -0.5358
     15 C11        -0.3789   -3.4480   -1.0884 C.2       1 <0>         0.5345
     16 O3          0.1214   -3.4168   -2.1922 O.2       1 <0>        -0.4575
     17 C12        -1.6554   -4.1745   -0.7247 C.3       1 <0>        -0.1111
     18 H1         -2.5027   -3.7962   -1.2967 H         1 <0>         0.1378
     19 C13        -1.8213   -3.8830    0.7804 C.3       1 <0>        -0.1102
     20 H2         -2.7530   -3.3540    0.9806 H         1 <0>         0.1387
     21 C14        -0.6171   -3.0285    1.1110 C.2       1 <0>         0.5354
     22 O4         -0.3543   -2.5788    2.2056 O.2       1 <0>        -0.4573
     23 C15        -1.7528   -5.2000    1.5632 C.3       1 <0>        -0.0436
     24 C16        -2.8947   -6.1072    1.0855 C.3       1 <0>        -0.1121
     25 C17        -2.7287   -6.3967   -0.4078 C.3       1 <0>        -0.1124
     26 C18        -1.4623   -5.6791   -0.9501 C.3       1 <0>        -0.0474
     27 C19        -0.2702   -6.1279   -0.1184 C.2       1 <0>        -0.1667
     28 C20        -0.4399   -5.8842    1.2130 C.2       1 <0>        -0.1662
     29 H3         -0.9155    1.7863   -0.9774 H         1 <0>         0.1381
     30 H4          1.1751    3.0782   -1.0005 H         1 <0>         0.1407
     31 H5          3.3149    1.9980   -0.5679 H         1 <0>         0.1522
     32 H6         -0.8983   -0.6082   -0.5285 H         1 <0>         0.1279
     33 H7          2.5418   -3.7538    0.4341 H         1 <0>         0.1523
     34 H8          4.6221   -2.4471    0.4105 H         1 <0>         0.1601
     35 H9         -1.8172   -5.0149    2.6354 H         1 <0>         0.1023
     36 H10        -2.8710   -7.0442    1.6418 H         1 <0>         0.0771
     37 H11        -3.8493   -5.6089    1.2547 H         1 <0>         0.0762
     38 H12        -2.6254   -7.4711   -0.5600 H         1 <0>         0.0759
     39 H13        -3.6046   -6.0363   -0.9471 H         1 <0>         0.0757
     40 H14        -1.3098   -5.8940   -2.0078 H         1 <0>         0.1027
     41 H15         0.6045   -6.5958   -0.5456 H         1 <0>         0.1334
     42 H16         0.3061   -6.1420    1.9502 H         1 <0>         0.1285
@<TRIPOS>BOND
     1    1    6 ar
     2    1    2 ar
     3    1   29 1
     4    2    3 ar
     5    2   30 1
     6    3    4 ar
     7    3   31 1
     8    4   10 ar
     9    4    5 ar
    10    5    6 ar
    11    5    7 ar
    12    6   32 1
    13    7    8 ar
    14    7   14 1
    15    8    9 ar
    16    8   33 1
    17    9   10 ar
    18    9   34 1
    19   10   11 1
    20   11   12 2
    21   11   13 1
    22   14   21 am
    23   14   15 am
    24   15   16 2
    25   15   17 1
    26   17   18 1
    27   17   26 1
    28   17   19 1
    29   19   20 1
    30   19   21 1
    31   19   23 1
    32   21   22 2
    33   23   28 1
    34   23   24 1
    35   23   35 1
    36   24   25 1
    37   24   36 1
    38   24   37 1
    39   25   26 1
    40   25   38 1
    41   25   39 1
    42   26   27 1
    43   26   40 1
    44   27   28 2
    45   27   41 1
    46   28   42 1
@<TRIPOS>MOLECULE
CHEMBL1209906
   52    56     0     0     0
SMALL
USER_CHARGES

@<TRIPOS>ATOM
      1 C1          0.0128    1.4962    0.1212 C.3       1 <0>        -0.1400
      2 C2          0.0246   -0.0325    0.0601 C.3       1 <0>         0.1065
      3 C3         -1.3978   -0.6169    0.0908 C.3       1 <0>         0.0989
      4 N1         -1.2862   -2.0830    0.0054 N.am      1 <0>        -0.6162
      5 C4         -0.2962   -2.7541    0.8645 C.3       1 <0>         0.0935
      6 C5          1.0249   -1.9730    0.7642 C.3       1 <0>         0.1051
      7 O1          0.7570   -0.6105    1.1631 O.3       1 <0>        -0.3413
      8 C6          1.4131   -1.8775   -0.7279 C.3       1 <0>        -0.1401
      9 H1          1.1090   -2.7520   -1.3031 H         1 <0>         0.1501
     10 C7          0.7416   -0.5528   -1.2055 C.3       1 <0>        -0.1411
     11 H2          0.0644   -0.7031   -2.0464 H         1 <0>         0.1493
     12 C8          1.9069    0.3567   -1.5231 C.2       1 <0>         0.5427
     13 O2          1.8164    1.4942   -1.9322 O.2       1 <0>        -0.4520
     14 N2          3.0536   -0.2890   -1.2816 N.am      1 <0>        -0.5422
     15 C9          2.8923   -1.5843   -0.8375 C.2       1 <0>         0.5452
     16 O3          3.7822   -2.3592   -0.5599 O.2       1 <0>        -0.4388
     17 C10         4.3081    0.2968   -1.4810 C.ar      1 <0>         0.1398
     18 C11         5.1301    0.5634   -0.3915 C.ar      1 <0>        -0.0671
     19 C12         6.3656    1.1405   -0.5837 C.ar      1 <0>        -0.0558
     20 C13         6.7932    1.4578   -1.8759 C.ar      1 <0>         0.0407
     21 C14         5.9646    1.1880   -2.9682 C.ar      1 <0>        -0.1303
     22 C15         4.7323    0.6058   -2.7683 C.ar      1 <0>        -0.0533
     23 C16         6.4207    1.5286   -4.3635 C.3       1 <0>         0.5072
     24 F1          5.4274    1.1673   -5.2801 F         1 <0>        -0.1680
     25 F2          6.6600    2.9041   -4.4532 F         1 <0>        -0.1668
     26 F3          7.5982    0.8307   -4.6527 F         1 <0>        -0.1676
     27 C17         8.0771    2.0584   -2.0800 C.1       1 <0>         0.2266
     28 N3          9.0956    2.5349   -2.2418 N.1       1 <0>        -0.3626
     29 C18         2.1278   -2.6097    1.6123 C.3       1 <0>        -0.1401
     30 C19        -2.0679   -2.7900   -0.8345 C.2       1 <0>         0.5485
     31 O4         -2.8779   -2.2195   -1.5341 O.2       1 <0>        -0.5287
     32 C20        -1.9356   -4.2896   -0.9045 C.3       1 <0>        -0.2026
     33 C21        -1.3606   -4.8888   -2.1895 C.3       1 <0>        -0.1529
     34 C22        -2.8513   -5.0350   -1.8775 C.3       1 <0>        -0.1434
     35 H3          1.0372    1.8682    0.1099 H         1 <0>         0.0740
     36 H4         -0.5264    1.8901   -0.7403 H         1 <0>         0.0887
     37 H5         -0.4811    1.8193    1.0376 H         1 <0>         0.0785
     38 H6         -1.8911   -0.3382    1.0220 H         1 <0>         0.0894
     39 H7         -1.9697   -0.2405   -0.7574 H         1 <0>         0.1098
     40 H8         -0.6455   -2.7567    1.8970 H         1 <0>         0.0921
     41 H9         -0.1457   -3.7783    0.5230 H         1 <0>         0.1056
     42 H10         4.7989    0.3179    0.6068 H         1 <0>         0.1514
     43 H11         7.0031    1.3479    0.2631 H         1 <0>         0.1597
     44 H12         4.0929    0.3932   -3.6123 H         1 <0>         0.1547
     45 H13         2.3151   -3.6247    1.2621 H         1 <0>         0.0889
     46 H14         3.0405   -2.0204    1.5232 H         1 <0>         0.0727
     47 H15         1.8136   -2.6374    2.6556 H         1 <0>         0.0805
     48 H16        -1.6907   -4.7843    0.0354 H         1 <0>         0.1270
     49 H17        -1.0780   -4.1984   -2.9843 H         1 <0>         0.0998
     50 H18        -0.7371   -5.7779   -2.0951 H         1 <0>         0.1081
     51 H19        -3.2086   -6.0202   -1.5779 H         1 <0>         0.1062
     52 H20        -3.5495   -4.4407   -2.4671 H         1 <0>         0.1094
@<TRIPOS>BOND
     1    1    2 1
     2    1   35 1
     3    1   36 1
     4    1   37 1
     5    2    7 1
     6    2   10 1
     7    2    3 1
     8    3    4 1
     9    3   38 1
    10    3   39 1
    11    4    5 1
    12    4   30 am
    13    5    6 1
    14    5   40 1
    15    5   41 1
    16    6    7 1
    17    6    8 1
    18    6   29 1
    19    8    9 1
    20    8   15 1
    21    8   10 1
    22   10   11 1
    23   10   12 1
    24   12   13 2
    25   12   14 am
    26   14   15 am
    27   14   17 1
    28   15   16 2
    29   17   22 ar
    30   17   18 ar
    31   18   19 ar
    32   18   42 1
    33   19   20 ar
    34   19   43 1
    35   20   21 ar
    36   20   27 1
    37   21   22 ar
    38   21   23 1
    39   22   44 1
    40   23   24 1
    41   23   25 1
    42   23   26 1
    43   27   28 3
    44   29   45 1
    45   29   46 1
    46   29   47 1
    47   30   31 2
    48   30   32 1
    49   32   34 1
    50   32   33 1
    51   32   48 1
    52   33   34 1
    53   33   49 1
    54   33   50 1
    55   34   51 1
    56   34   52 1
@<TRIPOS>MOLECULE
CHEMBL402807
   39    43     0     0     0
SMALL
USER_CHARGES

@<TRIPOS>ATOM
      1 C1          0.0219    1.2850   -0.7867 C.ar      1 <0>        -0.0933
      2 C2          1.2071    2.0180   -0.7973 C.ar      1 <0>        -0.0847
      3 C3          2.4043    1.4175   -0.5558 C.ar      1 <0>        -0.1138
      4 C4          2.4496    0.0376   -0.2908 C.ar      1 <0>        -0.0081
      5 C5          1.2440   -0.7065   -0.2798 C.ar      1 <0>        -0.0364
      6 C6          0.0279   -0.0527   -0.5339 C.ar      1 <0>        -0.1001
      7 C7          1.2891   -2.0911   -0.0140 C.ar      1 <0>         0.1744
      8 C8          2.5035   -2.6940    0.2298 C.ar      1 <0>        -0.1016
      9 C9          3.6815   -1.9530    0.2165 C.ar      1 <0>        -0.0286
     10 C10         3.6676   -0.6153   -0.0367 C.ar      1 <0>        -0.0190
     11 N1          4.9345    0.1504   -0.0453 N.pl3     1 <0>         0.0295
     12 O1          5.9381   -0.3465   -0.5008 O.2       1 <0>        -0.1404
     13 O2          4.9656    1.2727    0.4033 O.3       1 <0>        -0.1440
     14 N2          0.1107   -2.8453    0.0022 N.am      1 <0>        -0.5396
     15 C11        -0.3778   -3.4471   -1.0879 C.2       1 <0>         0.5394
     16 O3          0.1255   -3.4139   -2.1903 O.2       1 <0>        -0.4546
     17 C12        -1.6537   -4.1756   -0.7329 C.3       1 <0>        -0.1497
     18 H1         -2.5094   -3.8716   -1.3359 H         1 <0>         0.1518
     19 C13        -1.8214   -3.8810    0.7887 C.3       1 <0>        -0.1484
     20 H2         -2.7770   -3.4233    1.0445 H         1 <0>         0.1534
     21 C14        -0.6159   -3.0278    1.1105 C.2       1 <0>         0.5404
     22 O4         -0.3498   -2.5765    2.2037 O.2       1 <0>        -0.4545
     23 C15        -1.6129   -5.2838    1.4321 C.3       1 <0>         0.0895
     24 C16        -0.0873   -5.5739    1.3048 C.3       1 <0>        -0.1657
     25 C17         0.0809   -5.8660   -0.2081 C.3       1 <0>        -0.1657
     26 C18        -1.3760   -5.7074   -0.7767 C.3       1 <0>         0.0896
     27 O5         -2.1591   -6.1613    0.3939 O.3       1 <0>        -0.3514
     28 H3         -0.9155    1.7863   -0.9774 H         1 <0>         0.1387
     29 H4          1.1751    3.0782   -1.0005 H         1 <0>         0.1413
     30 H5          3.3149    1.9980   -0.5679 H         1 <0>         0.1527
     31 H6         -0.8983   -0.6082   -0.5285 H         1 <0>         0.1281
     32 H7          2.5418   -3.7538    0.4341 H         1 <0>         0.1519
     33 H8          4.6221   -2.4471    0.4105 H         1 <0>         0.1611
     34 H9         -2.0396   -5.4087    2.4273 H         1 <0>         0.1549
     35 H10         0.4974   -4.7017    1.5971 H         1 <0>         0.0754
     36 H11         0.1913   -6.4439    1.8994 H         1 <0>         0.0974
     37 H12         0.7490   -5.1390   -0.6698 H         1 <0>         0.0742
     38 H13         0.4440   -6.8813   -0.3674 H         1 <0>         0.0967
     39 H14        -1.5843   -6.1921   -1.7305 H         1 <0>         0.1593
@<TRIPOS>BOND
     1    1    6 ar
     2    1    2 ar
     3    1   28 1
     4    2    3 ar
     5    2   29 1
     6    3    4 ar
     7    3   30 1
     8    4   10 ar
     9    4    5 ar
    10    5    6 ar
    11    5    7 ar
    12    6   31 1
    13    7    8 ar
    14    7   14 1
    15    8    9 ar
    16    8   32 1
    17    9   10 ar
    18    9   33 1
    19   10   11 1
    20   11   12 2
    21   11   13 1
    22   14   21 am
    23   14   15 am
    24   15   16 2
    25   15   17 1
    26   17   18 1
    27   17   26 1
    28   17   19 1
    29   19   20 1
    30   19   21 1
    31   19   23 1
    32   21   22 2
    33   23   27 1
    34   23   24 1
    35   23   34 1
    36   24   25 1
    37   24   35 1
    38   24   36 1
    39   25   26 1
    40   25   37 1
    41   25   38 1
    42   26   27 1
    43   26   39 1
@<TRIPOS>MOLECULE
CHEMBL402807__1
   39    43     0     0     0
SMALL
USER_CHARGES

@<TRIPOS>ATOM
      1 C1          0.0219    1.2850   -0.7867 C.ar      1 <0>        -0.0945
      2 C2          1.2071    2.0180   -0.7973 C.ar      1 <0>        -0.0861
      3 C3          2.4043    1.4175   -0.5558 C.ar      1 <0>        -0.1134
      4 C4          2.4496    0.0376   -0.2908 C.ar      1 <0>        -0.0087
      5 C5          1.2440   -0.7065   -0.2798 C.ar      1 <0>        -0.0367
      6 C6          0.0279   -0.0527   -0.5339 C.ar      1 <0>        -0.0999
      7 C7          1.2891   -2.0911   -0.0140 C.ar      1 <0>         0.1744
      8 C8          2.5035   -2.6940    0.2298 C.ar      1 <0>        -0.0977
      9 C9          3.6815   -1.9530    0.2165 C.ar      1 <0>        -0.0279
     10 C10         3.6676   -0.6153   -0.0367 C.ar      1 <0>        -0.0209
     11 N1          4.9345    0.1504   -0.0453 N.pl3     1 <0>         0.0301
     12 O1          5.9381   -0.3465   -0.5008 O.2       1 <0>        -0.1411
     13 O2          4.9656    1.2727    0.4033 O.3       1 <0>        -0.1451
     14 N2          0.1107   -2.8453    0.0022 N.am      1 <0>        -0.5316
     15 C11        -0.3778   -3.4472   -1.0880 C.2       1 <0>         0.5379
     16 O3          0.1257   -3.4141   -2.1902 O.2       1 <0>        -0.4568
     17 C12        -1.6539   -4.1755   -0.7333 C.3       1 <0>        -0.1484
     18 H1         -2.5099   -3.8699   -1.3349 H         1 <0>         0.1529
     19 C13        -1.8199   -3.8831    0.7891 C.3       1 <0>        -0.1482
     20 H2         -2.7759   -3.4276    1.0469 H         1 <0>         0.1542
     21 C14        -0.6158   -3.0278    1.1104 C.2       1 <0>         0.5385
     22 O4         -0.3505   -2.5754    2.2034 O.2       1 <0>        -0.4568
     23 C15        -1.6078   -5.2865    1.4302 C.3       1 <0>         0.0805
     24 C16        -2.8972   -6.0937    1.0931 C.3       1 <0>        -0.1439
     25 C17        -2.7337   -6.3841   -0.4207 C.3       1 <0>        -0.1444
     26 C18        -1.3774   -5.7074   -0.7798 C.3       1 <0>         0.0810
     27 O5         -0.6444   -5.8847    0.5028 O.3       1 <0>        -0.3705
     28 H3         -0.9155    1.7863   -0.9774 H         1 <0>         0.1380
     29 H4          1.1751    3.0782   -1.0005 H         1 <0>         0.1408
     30 H5          3.3149    1.9980   -0.5679 H         1 <0>         0.1524
     31 H6         -0.8983   -0.6082   -0.5285 H         1 <0>         0.1274
     32 H7          2.5418   -3.7538    0.4341 H         1 <0>         0.1549
     33 H8          4.6221   -2.4471    0.4105 H         1 <0>         0.1610
     34 H9         -1.3110   -5.2801    2.4790 H         1 <0>         0.1478
     35 H10        -2.9316   -7.0223    1.6630 H         1 <0>         0.0880
     36 H11        -3.7880   -5.4932    1.2772 H         1 <0>         0.0869
     37 H12        -2.6873   -7.4574   -0.6052 H         1 <0>         0.0881
     38 H13        -3.5428   -5.9279   -0.9910 H         1 <0>         0.0861
     39 H14        -0.8903   -6.0661   -1.6865 H         1 <0>         0.1515
@<TRIPOS>BOND
     1    1    6 ar
     2    1    2 ar
     3    1   28 1
     4    2    3 ar
     5    2   29 1
     6    3    4 ar
     7    3   30 1
     8    4   10 ar
     9    4    5 ar
    10    5    6 ar
    11    5    7 ar
    12    6   31 1
    13    7    8 ar
    14    7   14 1
    15    8    9 ar
    16    8   32 1
    17    9   10 ar
    18    9   33 1
    19   10   11 1
    20   11   12 2
    21   11   13 1
    22   14   21 am
    23   14   15 am
    24   15   16 2
    25   15   17 1
    26   17   18 1
    27   17   26 1
    28   17   19 1
    29   19   20 1
    30   19   21 1
    31   19   23 1
    32   21   22 2
    33   23   27 1
    34   23   24 1
    35   23   34 1
    36   24   25 1
    37   24   35 1
    38   24   36 1
    39   25   26 1
    40   25   37 1
    41   25   38 1
    42   26   27 1
    43   26   39 1
@<TRIPOS>MOLECULE
CHEMBL393048
   35    36     0     0     0
SMALL
USER_CHARGES

@<TRIPOS>ATOM
      1 C1         -0.0184    1.5028    0.0103 C.3       1 <0>        -0.0779
      2 C2          0.0021   -0.0041    0.0020 C.ar      1 <0>        -0.1363
      3 C3          0.0057   -0.6925   -1.2071 C.ar      1 <0>         0.3269
      4 C4          0.0246   -2.0842   -1.2197 C.ar      1 <0>        -0.2822
      5 C5          0.0392   -2.7853   -0.0353 C.ar      1 <0>         0.0033
      6 C6          0.0356   -2.0982    1.1822 C.ar      1 <0>        -0.1905
      7 C7          0.0228   -0.6987    1.1918 C.ar      1 <0>         0.0579
      8 Cl1         0.0254    0.1605    2.7003 Cl        1 <0>        -0.0997
      9 C8          0.0504   -2.8244    2.4163 C.1       1 <0>         0.2999
     10 N1          0.0621   -3.4005    3.3954 N.1       1 <0>        -0.5013
     11 N2         -0.0100    0.0124   -2.4072 N.2       1 <0>        -1.0011
     12 S1         -0.0056   -0.8048   -3.8476 S.o2      1 <0>         2.7495
     13 O1          1.2486   -1.4669   -3.9351 O.2       1 <0>        -1.0396
     14 O2         -1.2418   -1.5015   -3.9229 O.2       1 <0>        -1.0645
     15 N3         -0.0273    0.3294   -5.0540 N.pl3     1 <0>        -0.9745
     16 C9         -1.2365    0.9059   -5.6697 C.3       1 <0>         0.1329
     17 C10        -0.7788    1.3843   -7.0701 C.3       1 <0>        -0.1640
     18 C11         0.6505    1.9075   -6.7688 C.3       1 <0>         0.1218
     19 H1          1.2763    1.8548   -7.6598 H         1 <0>         0.0582
     20 C12         1.1560    0.9329   -5.6841 C.3       1 <0>         0.0844
     21 H2          1.7685    0.1564   -6.1424 H         1 <0>         0.0668
     22 C13         1.9600    1.6819   -4.6528 C.2       1 <0>         0.4916
     23 O3          1.5995    1.6917   -3.4881 O.co2     1 <0>        -0.6329
     24 O4          2.9709    2.2781   -4.9830 O.co2     1 <0>        -0.7159
     25 O5          0.6040    3.2436   -6.2643 O.3       1 <0>        -0.5278
     26 H3          1.0042    1.8801    0.0026 H         1 <0>         0.0585
     27 H4         -0.5455    1.8639   -0.8728 H         1 <0>         0.0809
     28 H5         -0.5286    1.8543    0.9071 H         1 <0>         0.0387
     29 H6          0.0274   -2.6148   -2.1604 H         1 <0>         0.1048
     30 H7          0.0531   -3.8652   -0.0465 H         1 <0>         0.1129
     31 H8         -2.0132    0.1469   -5.7632 H         1 <0>         0.0643
     32 H9         -1.5974    1.7486   -5.0801 H         1 <0>         0.0581
     33 H10        -0.7503    0.5547   -7.7765 H         1 <0>         0.0722
     34 H11        -1.4190    2.1864   -7.4375 H         1 <0>         0.0725
     35 H12         0.2221    3.8836   -6.8804 H         1 <0>         0.3521
@<TRIPOS>BOND
     1    1    2 1
     2    1   26 1
     3    1   27 1
     4    1   28 1
     5    2    7 ar
     6    2    3 ar
     7    3    4 ar
     8    3   11 1
     9    4    5 ar
    10    4   29 1
    11    5    6 ar
    12    5   30 1
    13    6    7 ar
    14    6    9 1
    15    7    8 1
    16    9   10 3
    17   11   12 1
    18   12   13 2
    19   12   14 2
    20   12   15 1
    21   15   20 1
    22   15   16 1
    23   16   17 1
    24   16   31 1
    25   16   32 1
    26   17   18 1
    27   17   33 1
    28   17   34 1
    29   18   19 1
    30   18   20 1
    31   18   25 1
    32   20   21 1
    33   20   22 1
    34   22   23 2
    35   22   24 1
    36   25   35 1
@<TRIPOS>MOLECULE
CHEMBL393048__1
   36    37     0     0     0
SMALL
USER_CHARGES

@<TRIPOS>ATOM
      1 C1          0.8326    1.0146   -0.4581 C.3       1 <0>        -0.1246
      2 C2          0.5541   -0.4482   -0.6899 C.ar      1 <0>        -0.0758
      3 C3          0.1369   -0.8863   -1.9428 C.ar      1 <0>         0.2353
      4 C4         -0.1215   -2.2364   -2.1616 C.ar      1 <0>        -0.1882
      5 C5          0.0346   -3.1439   -1.1385 C.ar      1 <0>        -0.0332
      6 C6          0.4536   -2.7087    0.1222 C.ar      1 <0>        -0.0575
      7 C7          0.7185   -1.3514    0.3377 C.ar      1 <0>         0.0269
      8 Cl1         1.2460   -0.8056    1.8989 Cl        1 <0>        -0.0523
      9 C8          0.6165   -3.6500    1.1890 C.1       1 <0>         0.2647
     10 N1          0.7458   -4.3968    2.0353 N.1       1 <0>        -0.4208
     11 N2         -0.0231    0.0280   -2.9800 N.pl3     1 <0>        -1.0374
     12 S1         -1.2174   -0.1967   -4.1050 S.o2      1 <0>         2.8086
     13 O1         -1.2233    0.9618   -4.9280 O.2       1 <0>        -0.9624
     14 O2         -1.0386   -1.5043   -4.6316 O.2       1 <0>        -0.9832
     15 N3         -2.6601   -0.2070   -3.2921 N.pl3     1 <0>        -0.9811
     16 C9         -3.2458   -1.3671   -2.5960 C.3       1 <0>         0.1229
     17 C10        -4.7678   -1.0809   -2.5597 C.3       1 <0>        -0.1617
     18 C11        -4.7908    0.4543   -2.3365 C.3       1 <0>         0.1187
     19 H1         -5.7101    0.8876   -2.7305 H         1 <0>         0.0677
     20 C12        -3.5660    0.9409   -3.1396 C.3       1 <0>         0.0814
     21 H2         -3.8847    1.2944   -4.1202 H         1 <0>         0.0814
     22 C13        -2.8681    2.0490   -2.3940 C.2       1 <0>         0.5055
     23 O3         -3.3046    3.1864   -2.4436 O.co2     1 <0>        -0.6898
     24 O4         -1.8669    1.8083   -1.7412 O.co2     1 <0>        -0.6747
     25 O5         -4.6409    0.7660   -0.9500 O.3       1 <0>        -0.5334
     26 H3          1.9014    1.2018   -0.5613 H         1 <0>         0.0649
     27 H4          0.2871    1.6089   -1.1912 H         1 <0>         0.1095
     28 H5          0.5105    1.2911    0.5459 H         1 <0>         0.0753
     29 H6         -0.4452   -2.5724   -3.1356 H         1 <0>         0.1715
     30 H7         -0.1669   -4.1911   -1.3095 H         1 <0>         0.1446
     31 H8          0.5649    0.7968   -3.0439 H         1 <0>         0.4296
     32 H9         -3.0452   -2.2835   -3.1511 H         1 <0>         0.0751
     33 H10        -2.8495   -1.4416   -1.5833 H         1 <0>         0.0687
     34 H11        -5.2377   -1.3451   -3.5071 H         1 <0>         0.0799
     35 H12        -5.2439   -1.6035   -1.7301 H         1 <0>         0.0814
     36 H13        -5.3468    0.4155   -0.3895 H         1 <0>         0.3627
@<TRIPOS>BOND
     1    1    2 1
     2    1   26 1
     3    1   27 1
     4    1   28 1
     5    2    7 ar
     6    2    3 ar
     7    3    4 ar
     8    3   11 1
     9    4    5 ar
    10    4   29 1
    11    5    6 ar
    12    5   30 1
    13    6    7 ar
    14    6    9 1
    15    7    8 1
    16    9   10 3
    17   11   12 1
    18   11   31 1
    19   12   13 2
    20   12   14 2
    21   12   15 1
    22   15   20 1
    23   15   16 1
    24   16   17 1
    25   16   32 1
    26   16   33 1
    27   17   18 1
    28   17   34 1
    29   17   35 1
    30   18   19 1
    31   18   20 1
    32   18   25 1
    33   20   21 1
    34   20   22 1
    35   22   23 2
    36   22   24 1
    37   25   36 1
@<TRIPOS>MOLECULE
CHEMBL65929
   50    54     0     0     0
SMALL
USER_CHARGES

@<TRIPOS>ATOM
      1 C1         -0.1808    2.0490    0.2015 C.3       1 <0>        -0.1315
      2 C2         -0.2837    0.5659   -0.0596 C.2       1 <0>        -0.0538
      3 C3         -0.5176    0.1904   -1.3165 C.2       1 <0>        -0.1606
      4 C4         -0.7297   -1.2405   -1.7144 C.3       1 <0>         0.2151
      5 N1         -0.2067   -2.1503   -0.6971 N.pl3     1 <0>        -0.7322
      6 C5         -0.2018   -1.7944    0.6464 C.ar      1 <0>         0.2275
      7 C6         -0.1309   -0.4279    1.0089 C.ar      1 <0>        -0.0334
      8 C7          0.1430   -0.1332    2.3387 C.ar      1 <0>        -0.0356
      9 C8         -0.1521   -1.1159    3.3342 C.ar      1 <0>        -0.0897
     10 C9         -0.3194   -2.4345    2.9646 C.ar      1 <0>        -0.0536
     11 C10        -0.2854   -2.7736    1.6223 C.ar      1 <0>        -0.1733
     12 C11        -0.2711   -0.6481    4.7328 C.ar      1 <0>        -0.0626
     13 C12        -0.5592   -1.5412    5.7602 C.ar      1 <0>        -0.1171
     14 C13        -0.6712   -1.0838    7.0614 C.ar      1 <0>         0.0843
     15 C14        -0.5008    0.2613    7.3435 C.ar      1 <0>        -0.1216
     16 C15        -0.2116    1.1561    6.3290 C.ar      1 <0>        -0.0981
     17 C16        -0.0889    0.7108    5.0241 C.ar      1 <0>         0.1015
     18 O1          0.2197    1.5932    4.0319 O.3       1 <0>        -0.2282
     19 C17         0.7816    1.0594    2.8964 C.2       1 <0>         0.1962
     20 C18         1.9264    1.5788    2.3916 C.2       1 <0>        -0.1759
     21 S1          2.8265    0.7491    1.1111 S.3       1 <0>        -0.0748
     22 C19         3.1074    2.0700   -0.1042 C.3       1 <0>        -0.1248
     23 C20         3.8412    3.2321    0.5578 C.3       1 <0>        -0.1268
     24 C21         2.9028    4.0348    1.4536 C.3       1 <0>        -0.1132
     25 S2          2.5767    3.1174    2.9815 S.3       1 <0>        -0.1018
     26 F1         -0.9453   -1.9522    8.0597 F         1 <0>        -0.1350
     27 C22        -2.2300   -1.4960   -1.9008 C.3       1 <0>        -0.1607
     28 C23        -0.0155   -1.5053   -3.0450 C.3       1 <0>        -0.1546
     29 H1          0.7682    2.2667    0.6915 H         1 <0>         0.0689
     30 H2         -0.2339    2.5888   -0.7439 H         1 <0>         0.0677
     31 H3         -1.0025    2.3624    0.8454 H         1 <0>         0.0719
     32 H4         -0.5523    0.9592   -2.0819 H         1 <0>         0.1262
     33 H5          0.1463   -3.0239   -0.9645 H         1 <0>         0.4058
     34 H6         -0.4755   -3.1990    3.7106 H         1 <0>         0.1348
     35 H7         -0.3243   -3.8136    1.3307 H         1 <0>         0.1318
     36 H8         -0.6960   -2.5904    5.5446 H         1 <0>         0.1442
     37 H9         -0.5944    0.6134    8.3597 H         1 <0>         0.1482
     38 H10        -0.0825    2.2044    6.5557 H         1 <0>         0.1491
     39 H11         3.7084    1.6835   -0.9273 H         1 <0>         0.1169
     40 H12         2.1489    2.4185   -0.4888 H         1 <0>         0.0938
     41 H13         4.6619    2.8408    1.1591 H         1 <0>         0.0917
     42 H14         4.2452    3.8865   -0.2145 H         1 <0>         0.0887
     43 H15         3.3640    4.9922    1.6961 H         1 <0>         0.1203
     44 H16         1.9626    4.2084    0.9303 H         1 <0>         0.0874
     45 H17        -2.6164   -0.8389   -2.6800 H         1 <0>         0.0668
     46 H18        -2.3885   -2.5349   -2.1900 H         1 <0>         0.0620
     47 H19        -2.7517   -1.2957   -0.9649 H         1 <0>         0.0571
     48 H20         1.0510   -1.3121   -2.9297 H         1 <0>         0.0637
     49 H21        -0.1669   -2.5442   -3.3382 H         1 <0>         0.0639
     50 H22        -0.4229   -0.8480   -3.8132 H         1 <0>         0.0734
@<TRIPOS>BOND
     1    1    2 1
     2    1   29 1
     3    1   30 1
     4    1   31 1
     5    2    7 1
     6    2    3 2
     7    3    4 1
     8    3   32 1
     9    4    5 1
    10    4   27 1
    11    4   28 1
    12    5    6 1
    13    5   33 1
    14    6   11 ar
    15    6    7 ar
    16    7    8 ar
    17    8   19 1
    18    8    9 ar
    19    9   10 ar
    20    9   12 1
    21   10   11 ar
    22   10   34 1
    23   11   35 1
    24   12   17 ar
    25   12   13 ar
    26   13   14 ar
    27   13   36 1
    28   14   15 ar
    29   14   26 1
    30   15   16 ar
    31   15   37 1
    32   16   17 ar
    33   16   38 1
    34   17   18 1
    35   18   19 1
    36   19   20 2
    37   20   25 1
    38   20   21 1
    39   21   22 1
    40   22   23 1
    41   22   39 1
    42   22   40 1
    43   23   24 1
    44   23   41 1
    45   23   42 1
    46   24   25 1
    47   24   43 1
    48   24   44 1
    49   27   45 1
    50   27   46 1
    51   27   47 1
    52   28   48 1
    53   28   49 1
    54   28   50 1
@<TRIPOS>MOLECULE
CHEMBL307910
   51    54     0     0     0
SMALL
USER_CHARGES

@<TRIPOS>ATOM
      1 C1          0.0324    2.2762   -0.0443 C.3       1 <0>        -0.1499
      2 C2         -0.1758    0.7660    0.0858 C.3       1 <0>        -0.0578
      3 C3          0.4951    0.0547   -1.0729 C.3       1 <0>        -0.0919
      4 C4          1.9656    0.5041   -1.0938 C.3       1 <0>        -0.1185
      5 C5          2.6587    0.2058    0.2314 C.3       1 <0>        -0.0625
      6 C6          1.9014    0.8124    1.4189 C.3       1 <0>        -0.0755
      7 C7          0.4903    0.2551    1.3920 C.3       1 <0>        -0.0790
      8 C8         -0.4644    0.8006    2.4596 C.3       1 <0>        -0.1141
      9 C9         -1.8646    0.5433    1.8385 C.3       1 <0>        -0.1572
     10 C10        -1.6548    0.4666    0.3055 C.3       1 <0>         0.1104
     11 O1         -1.9715   -0.8422   -0.1728 O.3       1 <0>        -0.5608
     12 C11         2.6113    0.3790    2.7078 C.3       1 <0>        -0.0674
     13 C12         4.0173    0.9163    2.6660 C.2       1 <0>        -0.2052
     14 C13         4.6604    1.0543    1.5316 C.2       1 <0>         0.1168
     15 C14         4.0993    0.6546    0.2004 C.3       1 <0>        -0.0158
     16 C15         4.3184    1.8068   -0.7827 C.3       1 <0>        -0.1169
     17 C16         5.8250    2.0432   -0.9197 C.3       1 <0>        -0.1379
     18 C17         6.4862    2.1062    0.4249 C.2       1 <0>         0.5136
     19 O2          7.5736    2.6380    0.5015 O.2       1 <0>        -0.5397
     20 N1          5.9466    1.6109    1.5462 N.am      1 <0>        -0.5548
     21 C18         6.7073    1.6505    2.7975 C.3       1 <0>         0.0751
     22 C19         4.9329   -0.5231   -0.3087 C.3       1 <0>        -0.1503
     23 H1          1.0999    2.4946   -0.0743 H         1 <0>         0.0720
     24 H2         -0.4368    2.6299   -0.9624 H         1 <0>         0.0551
     25 H3         -0.4176    2.7800    0.8111 H         1 <0>         0.0573
     26 H4          0.4388   -1.0243   -0.9286 H         1 <0>         0.0710
     27 H5          0.0094    0.3306   -2.0090 H         1 <0>         0.0628
     28 H6          2.4872   -0.0201   -1.8946 H         1 <0>         0.0643
     29 H7          2.0079    1.5764   -1.2847 H         1 <0>         0.0705
     30 H8          2.6526   -0.8752    0.3710 H         1 <0>         0.0720
     31 H9          1.8782    1.8989    1.3348 H         1 <0>         0.0843
     32 H10         0.5130   -0.8345    1.4076 H         1 <0>         0.0802
     33 H11        -0.3507    0.2525    3.3949 H         1 <0>         0.0667
     34 H12        -0.3012    1.8672    2.6142 H         1 <0>         0.0694
     35 H13        -2.2706   -0.3983    2.2082 H         1 <0>         0.0725
     36 H14        -2.5390    1.3639    2.0833 H         1 <0>         0.0668
     37 H15        -2.2700    1.2126   -0.1977 H         1 <0>         0.0567
     38 H16        -2.8998   -1.0884   -0.0596 H         1 <0>         0.3758
     39 H17         2.0867    0.7860    3.5723 H         1 <0>         0.0748
     40 H18         2.6341   -0.7091    2.7682 H         1 <0>         0.0728
     41 H19         4.5056    1.1938    3.5884 H         1 <0>         0.1144
     42 H20         3.8978    1.5459   -1.7539 H         1 <0>         0.0913
     43 H21         3.8380    2.7090   -0.4042 H         1 <0>         0.0727
     44 H22         6.2638    1.2288   -1.4961 H         1 <0>         0.1060
     45 H23         5.9932    2.9832   -1.4453 H         1 <0>         0.1042
     46 H24         6.4870    0.7592    3.3850 H         1 <0>         0.0754
     47 H25         7.7736    1.6836    2.5737 H         1 <0>         0.0857
     48 H26         6.4275    2.5380    3.3650 H         1 <0>         0.0624
     49 H27         4.5975   -0.8005   -1.3080 H         1 <0>         0.0671
     50 H28         5.9837   -0.2356   -0.3450 H         1 <0>         0.0551
     51 H29         4.8114   -1.3720    0.3641 H         1 <0>         0.0602
@<TRIPOS>BOND
     1    1    2 1
     2    1   23 1
     3    1   24 1
     4    1   25 1
     5    2    7 1
     6    2   10 1
     7    2    3 1
     8    3    4 1
     9    3   26 1
    10    3   27 1
    11    4    5 1
    12    4   28 1
    13    4   29 1
    14    5   15 1
    15    5    6 1
    16    5   30 1
    17    6    7 1
    18    6   12 1
    19    6   31 1
    20    7    8 1
    21    7   32 1
    22    8    9 1
    23    8   33 1
    24    8   34 1
    25    9   10 1
    26    9   35 1
    27    9   36 1
    28   10   11 1
    29   10   37 1
    30   11   38 1
    31   12   13 1
    32   12   39 1
    33   12   40 1
    34   13   14 2
    35   13   41 1
    36   14   20 1
    37   14   15 1
    38   15   16 1
    39   15   22 1
    40   16   17 1
    41   16   42 1
    42   16   43 1
    43   17   18 1
    44   17   44 1
    45   17   45 1
    46   18   19 2
    47   18   20 am
    48   20   21 1
    49   21   46 1
    50   21   47 1
    51   21   48 1
    52   22   49 1
    53   22   50 1
    54   22   51 1
@<TRIPOS>MOLECULE
CHEMBL348495
   70    72     0     0     0
SMALL
USER_CHARGES

@<TRIPOS>ATOM
      1 C1         -0.0263    1.5154   -0.0197 C.3       1 <0>        -0.1486
      2 C2          0.0054   -0.0142   -0.0043 C.3       1 <0>         0.1215
      3 C3         -1.3948   -0.5751    0.1455 C.2       1 <0>         0.5284
      4 O1         -2.3277   -0.4283   -0.6148 O.2       1 <0>        -0.4406
      5 N1         -1.3868   -1.2717    1.2992 N.am      1 <0>        -0.5235
      6 C4         -0.1886   -1.2293    1.8929 C.2       1 <0>         0.7058
      7 O2          0.0639   -1.7826    2.9451 O.2       1 <0>        -0.5055
      8 N2          0.7055   -0.5060    1.1950 N.am      1 <0>        -0.6060
      9 C5          2.1030   -0.2565    1.5567 C.3       1 <0>         0.1531
     10 C6          2.1918    1.0163    2.4011 C.3       1 <0>         0.0346
     11 O3          1.5108    0.8139    3.6409 O.3       1 <0>        -0.3647
     12 C7          1.5342    1.9488    4.5090 C.3       1 <0>         0.0656
     13 C8          0.7794    1.6201    5.7987 C.3       1 <0>         0.0661
     14 O4          1.4713    0.5889    6.5058 O.3       1 <0>        -0.3678
     15 C9          0.8463    0.2051    7.7322 C.3       1 <0>         0.0652
     16 C10         1.6687   -0.8988    8.4001 C.3       1 <0>         0.0642
     17 O5          2.9471   -0.3807    8.7734 O.3       1 <0>        -0.3739
     18 C11         3.7984   -1.3363    9.4091 C.3       1 <0>         0.1033
     19 C12         5.1122   -0.6854    9.7573 C.ar      1 <0>        -0.1078
     20 C13         6.1534   -0.7014    8.8434 C.ar      1 <0>        -0.0499
     21 C14         7.3617   -0.1085    9.1508 C.ar      1 <0>        -0.1576
     22 C15         7.5405    0.5089   10.3800 C.ar      1 <0>         0.1777
     23 C16         6.4896    0.5276   11.3070 C.ar      1 <0>        -0.1756
     24 C17         5.2706   -0.0721   10.9810 C.ar      1 <0>        -0.0488
     25 C18         6.6680    1.1812   12.6176 C.2       1 <0>         0.5633
     26 O6          7.7290    1.7057   12.8960 O.2       1 <0>        -0.5237
     27 N3          5.6547    1.1970   13.5062 N.am      1 <0>        -0.8533
     28 O7          8.7273    1.0915   10.6836 O.3       1 <0>        -0.4779
     29 C19        -2.4946   -1.9541    1.8128 C.ar      1 <0>         0.1673
     30 C20        -2.3566   -2.7452    2.9480 C.ar      1 <0>        -0.1048
     31 C21        -3.4448   -3.4185    3.4567 C.ar      1 <0>        -0.0472
     32 C22        -4.6894   -3.3056    2.8306 C.ar      1 <0>         0.0152
     33 C23        -4.8241   -2.5093    1.6902 C.ar      1 <0>        -0.1208
     34 C24        -3.7319   -1.8350    1.1903 C.ar      1 <0>        -0.0969
     35 C25        -6.1636   -2.3846    1.0111 C.3       1 <0>         0.5067
     36 F1         -6.0469   -1.5408   -0.0987 F         1 <0>        -0.1662
     37 F2         -6.5939   -3.6484    0.5929 F         1 <0>        -0.1688
     38 F3         -7.0934   -1.8487    1.9086 F         1 <0>        -0.1692
     39 C26        -5.8233   -4.0045    3.3561 C.1       1 <0>         0.2314
     40 N4         -6.7229   -4.5590    3.7730 N.1       1 <0>        -0.3733
     41 C27         0.6706   -0.5501   -1.2736 C.3       1 <0>        -0.1485
     42 H1          0.9937    1.8999   -0.0236 H         1 <0>         0.0836
     43 H2         -0.5475    1.8590   -0.9132 H         1 <0>         0.0883
     44 H3         -0.5475    1.8770    0.8666 H         1 <0>         0.0685
     45 H4          2.4861   -1.1005    2.1302 H         1 <0>         0.1043
     46 H5          2.6964   -0.1336    0.6507 H         1 <0>         0.1065
     47 H6          3.2384    1.2510    2.5955 H         1 <0>         0.0672
     48 H7          1.7281    1.8427    1.8625 H         1 <0>         0.0550
     49 H8          2.5670    2.2028    4.7471 H         1 <0>         0.0595
     50 H9          1.0568    2.7945    4.0141 H         1 <0>         0.0608
     51 H10         0.7205    2.5119    6.4225 H         1 <0>         0.0629
     52 H11        -0.2271    1.2805    5.5542 H         1 <0>         0.0549
     53 H12         0.7887    1.0676    8.3962 H         1 <0>         0.0558
     54 H13        -0.1588   -0.1638    7.5278 H         1 <0>         0.0649
     55 H14         1.1468   -1.2534    9.2889 H         1 <0>         0.0651
     56 H15         1.8013   -1.7257    7.7025 H         1 <0>         0.0620
     57 H16         3.3207   -1.7000   10.3188 H         1 <0>         0.0597
     58 H17         3.9752   -2.1723    8.7324 H         1 <0>         0.0630
     59 H18         6.0191   -1.1808    7.8850 H         1 <0>         0.1350
     60 H19         8.1688   -0.1257    8.4335 H         1 <0>         0.1399
     61 H20         4.4549   -0.0585   11.6887 H         1 <0>         0.1305
     62 H21         4.8083    0.7786   13.2840 H         1 <0>         0.3994
     63 H22         5.7720    1.6267   14.3678 H         1 <0>         0.4063
     64 H23         8.7844    2.0230   10.4304 H         1 <0>         0.3981
     65 H24        -1.3946   -2.8319    3.4313 H         1 <0>         0.1841
     66 H25        -3.3367   -4.0333    4.3380 H         1 <0>         0.1566
     67 H26        -3.8361   -1.2162    0.3114 H         1 <0>         0.1768
     68 H27         1.6965   -0.1858   -1.3277 H         1 <0>         0.0841
     69 H28         0.6728   -1.6398   -1.2503 H         1 <0>         0.0701
     70 H29         0.1165   -0.2064   -2.1470 H         1 <0>         0.0888
@<TRIPOS>BOND
     1    1    2 1
     2    1   42 1
     3    1   43 1
     4    1   44 1
     5    2    8 1
     6    2    3 1
     7    2   41 1
     8    3    4 2
     9    3    5 am
    10    5    6 am
    11    5   29 1
    12    6    7 2
    13    6    8 am
    14    8    9 1
    15    9   10 1
    16    9   45 1
    17    9   46 1
    18   10   11 1
    19   10   47 1
    20   10   48 1
    21   11   12 1
    22   12   13 1
    23   12   49 1
    24   12   50 1
    25   13   14 1
    26   13   51 1
    27   13   52 1
    28   14   15 1
    29   15   16 1
    30   15   53 1
    31   15   54 1
    32   16   17 1
    33   16   55 1
    34   16   56 1
    35   17   18 1
    36   18   19 1
    37   18   57 1
    38   18   58 1
    39   19   24 ar
    40   19   20 ar
    41   20   21 ar
    42   20   59 1
    43   21   22 ar
    44   21   60 1
    45   22   23 ar
    46   22   28 1
    47   23   24 ar
    48   23   25 1
    49   24   61 1
    50   25   26 2
    51   25   27 am
    52   27   62 1
    53   27   63 1
    54   28   64 1
    55   29   34 ar
    56   29   30 ar
    57   30   31 ar
    58   30   65 1
    59   31   32 ar
    60   31   66 1
    61   32   33 ar
    62   32   39 1
    63   33   34 ar
    64   33   35 1
    65   34   67 1
    66   35   36 1
    67   35   37 1
    68   35   38 1
    69   39   40 3
    70   41   68 1
    71   41   69 1
    72   41   70 1
@<TRIPOS>MOLECULE
CHEMBL467888
   43    45     0     0     0
SMALL
USER_CHARGES

@<TRIPOS>ATOM
      1 C1          0.3961    1.4576    0.0178 C.3       1 <0>        -0.1657
      2 C2          0.3029   -0.0695    0.0265 C.3       1 <0>         0.1369
      3 H1          0.8483   -0.4870   -0.8198 H         1 <0>         0.0846
      4 C3         -1.1790   -0.5193   -0.0122 C.3       1 <0>        -0.1259
      5 C4         -1.5824   -0.3919    1.4806 C.3       1 <0>        -0.1334
      6 C5         -0.2946   -0.8062    2.2232 C.3       1 <0>         0.1132
      7 H2         -0.3552   -1.8552    2.5133 H         1 <0>         0.0960
      8 N1          0.8304   -0.6085    1.2933 N.pl3     1 <0>        -0.6117
      9 C6          2.1741   -0.8863    1.5642 C.ar      1 <0>         0.2264
     10 C7          2.5396   -1.4020    2.8074 C.ar      1 <0>        -0.1367
     11 C8          3.8577   -1.6811    3.0908 C.ar      1 <0>        -0.1020
     12 C9          4.8394   -1.4491    2.1327 C.ar      1 <0>         0.1358
     13 C10         4.4760   -0.9289    0.8764 C.ar      1 <0>        -0.0570
     14 C11         3.1333   -0.6540    0.5968 C.ar      1 <0>        -0.1422
     15 C12         5.5198   -0.6903   -0.1223 C.2       1 <0>        -0.0919
     16 C13         6.8044   -0.9804    0.2006 C.2       1 <0>        -0.1264
     17 C14         7.1168   -1.5011    1.4745 C.2       1 <0>         0.5343
     18 O1          8.2781   -1.7553    1.7439 O.2       1 <0>        -0.5239
     19 N2          6.1660   -1.7233    2.3985 N.am      1 <0>        -0.6188
     20 H3          6.4157   -2.0818    3.2646 H         1 <0>         0.4205
     21 C15         5.1738   -0.1348   -1.4798 C.3       1 <0>         0.5095
     22 F1          6.3405   -0.0018   -2.2403 F         1 <0>        -0.1681
     23 F2          4.2909   -1.0048   -2.1285 F         1 <0>        -0.1671
     24 F3          4.5690    1.1178   -1.3308 F         1 <0>        -0.1663
     25 C16        -0.1064    0.0669    3.4654 C.3       1 <0>         0.0513
     26 H4          0.8549   -0.1595    3.9265 H         1 <0>         0.1460
     27 C17        -1.2304   -0.2175    4.4637 C.3       1 <0>         0.4209
     28 F4         -1.1963   -1.5666    4.8325 F         1 <0>        -0.1767
     29 F5         -1.0584    0.5809    5.5996 F         1 <0>        -0.1720
     30 F6         -2.4643    0.0731    3.8720 F         1 <0>        -0.1790
     31 O2         -0.1413    1.4450    3.0888 O.3       1 <0>        -0.5141
     32 H5          1.4408    1.7583    0.0979 H         1 <0>         0.0611
     33 H6         -0.0222    1.8419   -0.9125 H         1 <0>         0.0658
     34 H7         -0.1637    1.8607    0.8617 H         1 <0>         0.0665
     35 H8         -1.7737    0.1480   -0.6360 H         1 <0>         0.0911
     36 H9         -1.2653   -1.5509   -0.3535 H         1 <0>         0.0814
     37 H10        -1.8521    0.6366    1.7207 H         1 <0>         0.0806
     38 H11        -2.4005   -1.0718    1.7184 H         1 <0>         0.0939
     39 H12         1.7816   -1.5836    3.5550 H         1 <0>         0.1317
     40 H13         4.1296   -2.0798    4.0570 H         1 <0>         0.1427
     41 H14         2.8486   -0.2589   -0.3672 H         1 <0>         0.1352
     42 H15         7.5912   -0.8127   -0.5199 H         1 <0>         0.1720
     43 H16        -1.0032    1.7432    2.7676 H         1 <0>         0.3817
@<TRIPOS>BOND
     1    1    2 1
     2    1   32 1
     3    1   33 1
     4    1   34 1
     5    2    3 1
     6    2    8 1
     7    2    4 1
     8    4    5 1
     9    4   35 1
    10    4   36 1
    11    5    6 1
    12    5   37 1
    13    5   38 1
    14    6    7 1
    15    6    8 1
    16    6   25 1
    17    8    9 1
    18    9   14 ar
    19    9   10 ar
    20   10   11 ar
    21   10   39 1
    22   11   12 ar
    23   11   40 1
    24   12   19 1
    25   12   13 ar
    26   13   14 ar
    27   13   15 1
    28   14   41 1
    29   15   16 2
    30   15   21 1
    31   16   17 1
    32   16   42 1
    33   17   18 2
    34   17   19 am
    35   19   20 1
    36   21   22 1
    37   21   23 1
    38   21   24 1
    39   25   26 1
    40   25   27 1
    41   25   31 1
    42   27   28 1
    43   27   29 1
    44   27   30 1
    45   31   43 1
@<TRIPOS>MOLECULE
CHEMBL76271
   70    73     0     0     0
SMALL
USER_CHARGES

@<TRIPOS>ATOM
      1 C1          1.6063   -2.7866    3.5763 C.3       1 <0>        -0.1665
      2 C2          0.6837   -2.0808    2.5804 C.3       1 <0>         0.1107
      3 N1          1.4421   -1.7277    1.3778 N.am      1 <0>        -0.6146
      4 C3          1.5232   -2.6709    0.2597 C.3       1 <0>         0.0961
      5 C4          0.3647   -2.4168   -0.7069 C.3       1 <0>        -0.1746
      6 C5          2.0653   -0.5352    1.3000 C.2       1 <0>         0.5289
      7 O1          2.0723    0.2090    2.2576 O.2       1 <0>        -0.5335
      8 C6          2.7510   -0.1278    0.0273 C.3       1 <0>        -0.1142
      9 C7          2.6595    1.4073   -0.1737 C.3       1 <0>        -0.1131
     10 C8          4.1101    1.8988   -0.4538 C.3       1 <0>        -0.1134
     11 C9          4.7896    0.6019   -0.9171 C.3       1 <0>        -0.0726
     12 C10         4.2675   -0.3977    0.1381 C.3       1 <0>        -0.0398
     13 C11         4.7007   -1.7944   -0.2183 C.3       1 <0>        -0.1059
     14 C12         6.2078   -1.8673   -0.4924 C.3       1 <0>        -0.1069
     15 C13         6.9261   -0.5478   -0.2748 C.3       1 <0>        -0.0691
     16 C14         6.2781    0.5942   -1.0521 C.3       1 <0>        -0.0714
     17 C15         6.9376    1.9125   -0.6557 C.3       1 <0>        -0.1063
     18 C16         8.4251    1.8524   -1.0330 C.3       1 <0>        -0.1280
     19 C17         8.7582    0.4919   -1.6345 C.3       1 <0>         0.1770
     20 H1          8.1804    0.3669   -2.5620 H         1 <0>         0.0682
     21 C18         8.4036   -0.6403   -0.6735 C.3       1 <0>        -0.0649
     22 C19         8.6897   -1.9703   -1.3681 C.3       1 <0>        -0.1111
     23 C20        10.1815   -2.1110   -1.6514 C.3       1 <0>        -0.1032
     24 C21        10.8213   -0.8160   -2.0627 C.2       1 <0>         0.3780
     25 N2         12.0487   -0.8359   -2.5161 N.2       1 <0>        -0.4409
     26 O2         12.7484   -2.0633   -2.6116 O.3       1 <0>        -0.4190
     27 N3         10.1794    0.4076   -1.9883 N.pl3     1 <0>        -0.5909
     28 C22        10.9515    1.6287   -2.2826 C.3       1 <0>         0.0946
     29 C23         9.2459   -0.5388    0.6020 C.3       1 <0>        -0.1409
     30 C24         4.6651   -0.0325    1.5662 C.3       1 <0>        -0.1477
     31 H2          2.4668   -2.1517    3.7872 H         1 <0>         0.0594
     32 H3          1.0625   -2.9805    4.5008 H         1 <0>         0.0651
     33 H4          1.9468   -3.7303    3.1502 H         1 <0>         0.0536
     34 H5         -0.1364   -2.7460    2.3105 H         1 <0>         0.0745
     35 H6          0.2824   -1.1754    3.0357 H         1 <0>         0.0815
     36 H7          2.4696   -2.5338   -0.2634 H         1 <0>         0.0858
     37 H8          1.4624   -3.6907    0.6396 H         1 <0>         0.0789
     38 H9          0.4250   -3.1185   -1.5387 H         1 <0>         0.0686
     39 H10        -0.5817   -2.5539   -0.1837 H         1 <0>         0.0594
     40 H11         0.4255   -1.3969   -1.0867 H         1 <0>         0.0585
     41 H12         2.3454   -0.6532   -0.8301 H         1 <0>         0.0918
     42 H13         2.0201    1.6367   -1.0243 H         1 <0>         0.0664
     43 H14         2.2756    1.8806    0.7286 H         1 <0>         0.0810
     44 H15         4.1070    2.6335   -1.2633 H         1 <0>         0.0649
     45 H16         4.5711    2.3128    0.4320 H         1 <0>         0.0764
     46 H17         4.3476    0.3319   -1.8994 H         1 <0>         0.0698
     47 H18         4.4482   -2.4798    0.6040 H         1 <0>         0.0604
     48 H19         4.1521   -2.1340   -1.1086 H         1 <0>         0.0629
     49 H20         6.6503   -2.6314    0.1604 H         1 <0>         0.0635
     50 H21         6.3602   -2.1961   -1.5298 H         1 <0>         0.0654
     51 H22         6.9429   -0.3086    0.7922 H         1 <0>         0.0852
     52 H23         6.4997    0.4323   -2.1280 H         1 <0>         0.0682
     53 H24         6.4607    2.7348   -1.1894 H         1 <0>         0.0704
     54 H25         6.8395    2.0661    0.4185 H         1 <0>         0.0684
     55 H26         8.6062    2.6379   -1.7768 H         1 <0>         0.0684
     56 H27         9.0332    2.0521   -0.1555 H         1 <0>         0.0738
     57 H28         8.3665   -2.7927   -0.7234 H         1 <0>         0.0791
     58 H29         8.1322   -2.0175   -2.3077 H         1 <0>         0.0694
     59 H30        10.6906   -2.5092   -0.7660 H         1 <0>         0.0886
     60 H31        10.3211   -2.8485   -2.4559 H         1 <0>         0.0874
     61 H32        13.6474   -1.9776   -2.9571 H         1 <0>         0.3969
     62 H33        11.3938    2.0096   -1.3621 H         1 <0>         0.0490
     63 H34        11.7419    1.3957   -2.9961 H         1 <0>         0.0790
     64 H35        10.2897    2.3836   -2.7072 H         1 <0>         0.0660
     65 H36         8.9859   -1.3559    1.2750 H         1 <0>         0.0577
     66 H37        10.3033   -0.6021    0.3451 H         1 <0>         0.0561
     67 H38         9.0478    0.4137    1.0934 H         1 <0>         0.0589
     68 H39         4.1858   -0.7193    2.2637 H         1 <0>         0.0536
     69 H40         5.7477   -0.1044    1.6715 H         1 <0>         0.0617
     70 H41         4.3459    0.9869    1.7828 H         1 <0>         0.0694
@<TRIPOS>BOND
     1    1    2 1
     2    1   31 1
     3    1   32 1
     4    1   33 1
     5    2    3 1
     6    2   34 1
     7    2   35 1
     8    3    4 1
     9    3    6 am
    10    4    5 1
    11    4   36 1
    12    4   37 1
    13    5   38 1
    14    5   39 1
    15    5   40 1
    16    6    7 2
    17    6    8 1
    18    8   12 1
    19    8    9 1
    20    8   41 1
    21    9   10 1
    22    9   42 1
    23    9   43 1
    24   10   11 1
    25   10   44 1
    26   10   45 1
    27   11   16 1
    28   11   12 1
    29   11   46 1
    30   12   13 1
    31   12   30 1
    32   13   14 1
    33   13   47 1
    34   13   48 1
    35   14   15 1
    36   14   49 1
    37   14   50 1
    38   15   21 1
    39   15   16 1
    40   15   51 1
    41   16   17 1
    42   16   52 1
    43   17   18 1
    44   17   53 1
    45   17   54 1
    46   18   19 1
    47   18   55 1
    48   18   56 1
    49   19   20 1
    50   19   27 1
    51   19   21 1
    52   21   22 1
    53   21   29 1
    54   22   23 1
    55   22   57 1
    56   22   58 1
    57   23   24 1
    58   23   59 1
    59   23   60 1
    60   24   25 2
    61   24   27 1
    62   25   26 1
    63   26   61 1
    64   27   28 1
    65   28   62 1
    66   28   63 1
    67   28   64 1
    68   29   65 1
    69   29   66 1
    70   29   67 1
    71   30   68 1
    72   30   69 1
    73   30   70 1
@<TRIPOS>MOLECULE
CHEMBL471644
   33    34     0     0     0
SMALL
USER_CHARGES

@<TRIPOS>ATOM
      1 C1         -0.0184    1.5028    0.0103 C.3       1 <0>        -0.1182
      2 C2          0.0021   -0.0041    0.0020 C.ar      1 <0>        -0.0784
      3 C3          0.0057   -0.6888   -1.1977 C.ar      1 <0>        -0.1165
      4 C4          0.0240   -2.0713   -1.2060 C.ar      1 <0>        -0.0992
      5 C5          0.0386   -2.7722   -0.0142 C.ar      1 <0>        -0.1165
      6 C6          0.0350   -2.0924    1.1883 C.ar      1 <0>        -0.0786
      7 C7          0.0230   -0.7049    1.1995 C.ar      1 <0>         0.0600
      8 O1          0.0255   -0.0336    2.3809 O.3       1 <0>        -0.2379
      9 C8         -1.1716    0.2653    2.9466 C.ar      1 <0>         0.1550
     10 C9         -2.3504   -0.1201    2.3187 C.ar      1 <0>        -0.1670
     11 C10        -3.5670    0.1811    2.8892 C.ar      1 <0>        -0.0271
     12 C11        -3.6155    0.8755    4.1014 C.ar      1 <0>        -0.0117
     13 C12        -2.4281    1.2611    4.7293 C.ar      1 <0>        -0.1015
     14 C13        -1.2153    0.9508    4.1547 C.ar      1 <0>        -0.1006
     15 C14        -2.4743    2.0098    6.0363 C.3       1 <0>         0.5067
     16 F1         -1.1705    2.2829    6.4637 F         1 <0>        -0.1677
     17 F2         -3.1689    3.2115    5.8610 F         1 <0>        -0.1684
     18 F3         -3.1265    1.2301    6.9975 F         1 <0>        -0.1684
     19 C15        -4.8785    1.1912    4.6979 C.1       1 <0>         0.2333
     20 N1         -5.8804    1.4417    5.1712 N.1       1 <0>        -0.3784
     21 C16         0.0504   -2.8569    2.4869 C.3       1 <0>        -0.1183
     22 H1          1.0042    1.8801    0.0026 H         1 <0>         0.0799
     23 H2         -0.5455    1.8639   -0.8728 H         1 <0>         0.0733
     24 H3         -0.5286    1.8543    0.9071 H         1 <0>         0.0671
     25 H4         -0.0060   -0.1438   -2.1300 H         1 <0>         0.1327
     26 H5          0.0264   -2.6048   -2.1451 H         1 <0>         0.1313
     27 H6          0.0525   -3.8521   -0.0234 H         1 <0>         0.1327
     28 H7         -2.3121   -0.6562    1.3820 H         1 <0>         0.1492
     29 H8         -4.4824   -0.1184    2.4005 H         1 <0>         0.1515
     30 H9         -0.2970    1.2442    4.6417 H         1 <0>         0.1613
     31 H10         1.0817   -3.0280    2.7956 H         1 <0>         0.0799
     32 H11        -0.4676   -2.2809    3.2538 H         1 <0>         0.0671
     33 H12        -0.4517   -3.8147    2.3507 H         1 <0>         0.0734
@<TRIPOS>BOND
     1    1    2 1
     2    1   22 1
     3    1   23 1
     4    1   24 1
     5    2    7 ar
     6    2    3 ar
     7    3    4 ar
     8    3   25 1
     9    4    5 ar
    10    4   26 1
    11    5    6 ar
    12    5   27 1
    13    6    7 ar
    14    6   21 1
    15    7    8 1
    16    8    9 1
    17    9   14 ar
    18    9   10 ar
    19   10   11 ar
    20   10   28 1
    21   11   12 ar
    22   11   29 1
    23   12   13 ar
    24   12   19 1
    25   13   14 ar
    26   13   15 1
    27   14   30 1
    28   15   16 1
    29   15   17 1
    30   15   18 1
    31   19   20 3
    32   21   31 1
    33   21   32 1
    34   21   33 1
@<TRIPOS>MOLECULE
CHEMBL134277
   48    52     0     0     0
SMALL
USER_CHARGES

@<TRIPOS>ATOM
      1 C1         -0.5108    1.6667    0.4224 C.3       1 <0>        -0.1176
      2 C2         -0.4603    0.1665    0.2633 C.2       1 <0>        -0.0607
      3 C3         -0.7015   -0.3183   -0.9535 C.2       1 <0>        -0.1658
      4 C4         -0.7602   -1.7876   -1.2497 C.3       1 <0>         0.2138
      5 N1         -0.1057   -2.5622   -0.1970 N.pl3     1 <0>        -0.7343
      6 C5         -0.0942   -2.1158    1.1193 C.ar      1 <0>         0.2260
      7 C6         -0.1632   -0.7285    1.3886 C.ar      1 <0>        -0.0655
      8 C7          0.1163   -0.3145    2.6823 C.ar      1 <0>        -0.0179
      9 C8         -0.0351   -1.2489    3.7505 C.ar      1 <0>        -0.0965
     10 C9         -0.0649   -2.6026    3.4756 C.ar      1 <0>        -0.0512
     11 C10        -0.0345   -3.0281    2.1602 C.ar      1 <0>        -0.1810
     12 C11        -0.1611   -0.6992    5.1173 C.ar      1 <0>        -0.0607
     13 C12        -0.3160   -1.5418    6.2148 C.ar      1 <0>        -0.1182
     14 C13        -0.4397   -1.0069    7.4838 C.ar      1 <0>         0.0807
     15 C14        -0.4058    0.3664    7.6677 C.ar      1 <0>        -0.1217
     16 C15        -0.2463    1.2108    6.5859 C.ar      1 <0>        -0.1058
     17 C16        -0.1218    0.6890    5.3089 C.ar      1 <0>         0.1051
     18 O1          0.0483    1.5263    4.2477 O.3       1 <0>        -0.2407
     19 C17         0.6344    0.9820    3.1369 C.2       1 <0>         0.0859
     20 C18         1.6990    1.5857    2.5627 C.2       1 <0>        -0.0803
     21 C19         2.0591    2.9628    2.9436 C.2       1 <0>        -0.0997
     22 C20         3.2587    3.5842    2.4487 C.2       1 <0>        -0.1425
     23 C21         3.5294    4.8485    2.8364 C.2       1 <0>        -0.1727
     24 S1          2.1510    5.2415    3.8967 S.3       1 <0>         0.0261
     25 C22         1.2612    3.7008    3.7774 C.2       1 <0>        -0.1428
     26 F1         -0.5945   -1.8253    8.5478 F         1 <0>        -0.1363
     27 C23        -0.0594   -2.0595   -2.5868 C.3       1 <0>        -0.1549
     28 C24        -2.2254   -2.2238   -1.3644 C.3       1 <0>        -0.1603
     29 H1          0.4794    2.0848    0.2414 H         1 <0>         0.0723
     30 H2         -1.2182    2.0845   -0.2940 H         1 <0>         0.0672
     31 H3         -0.8301    1.9141    1.4348 H         1 <0>         0.0685
     32 H4         -0.8652    0.3876   -1.7613 H         1 <0>         0.1278
     33 H5          0.3317   -3.4087   -0.4209 H         1 <0>         0.4050
     34 H6         -0.1127   -3.3249    4.2768 H         1 <0>         0.1329
     35 H7          0.0365   -4.0839    1.9397 H         1 <0>         0.1299
     36 H8         -0.3360   -2.6132    6.0780 H         1 <0>         0.1424
     37 H9         -0.5025    0.7782    8.6613 H         1 <0>         0.1463
     38 H10        -0.2152    2.2800    6.7359 H         1 <0>         0.1453
     39 H11         2.2855    1.0587    1.8247 H         1 <0>         0.1432
     40 H12         3.9250    3.0531    1.7851 H         1 <0>         0.1370
     41 H13         4.3726    5.4686    2.5703 H         1 <0>         0.1862
     42 H14         0.3291    3.4201    4.2451 H         1 <0>         0.1987
     43 H15         0.9807   -1.7398   -2.5235 H         1 <0>         0.0633
     44 H16        -0.0989   -3.1262   -2.8074 H         1 <0>         0.0634
     45 H17        -0.5621   -1.5056   -3.3797 H         1 <0>         0.0742
     46 H18        -2.7074   -1.6699   -2.1699 H         1 <0>         0.0674
     47 H19        -2.2708   -3.2914   -1.5796 H         1 <0>         0.0615
     48 H20        -2.7396   -2.0204   -0.4251 H         1 <0>         0.0571
@<TRIPOS>BOND
     1    1    2 1
     2    1   29 1
     3    1   30 1
     4    1   31 1
     5    2    7 1
     6    2    3 2
     7    3    4 1
     8    3   32 1
     9    4    5 1
    10    4   27 1
    11    4   28 1
    12    5    6 1
    13    5   33 1
    14    6   11 ar
    15    6    7 ar
    16    7    8 ar
    17    8   19 1
    18    8    9 ar
    19    9   10 ar
    20    9   12 1
    21   10   11 ar
    22   10   34 1
    23   11   35 1
    24   12   17 ar
    25   12   13 ar
    26   13   14 ar
    27   13   36 1
    28   14   15 ar
    29   14   26 1
    30   15   16 ar
    31   15   37 1
    32   16   17 ar
    33   16   38 1
    34   17   18 1
    35   18   19 1
    36   19   20 2
    37   20   21 1
    38   20   39 1
    39   21   25 2
    40   21   22 1
    41   22   23 2
    42   22   40 1
    43   23   24 1
    44   23   41 1
    45   24   25 1
    46   25   42 1
    47   27   43 1
    48   27   44 1
    49   27   45 1
    50   28   46 1
    51   28   47 1
    52   28   48 1
@<TRIPOS>MOLECULE
CHEMBL427243
   86    90     0     0     0
SMALL
USER_CHARGES

@<TRIPOS>ATOM
      1 C1         -0.1018    1.8780    0.2146 C.3       1 <0>        -0.1327
      2 C2         -0.0937    0.3558    0.0606 C.3       1 <0>        -0.0565
      3 C3         -1.5139   -0.1722    0.1131 C.3       1 <0>        -0.1034
      4 C4         -2.1432    0.3380    1.4204 C.3       1 <0>        -0.1192
      5 C5         -1.3326   -0.0986    2.6359 C.3       1 <0>        -0.0675
      6 H1         -1.3688   -1.1854    2.7111 H         1 <0>         0.0673
      7 C6          0.1346    0.3420    2.5263 C.3       1 <0>        -0.0694
      8 H2          0.1943    1.4296    2.4860 H         1 <0>         0.0883
      9 C7          0.6843   -0.2871    1.2408 C.3       1 <0>        -0.0807
     10 H3          0.5422   -1.3677    1.2477 H         1 <0>         0.0755
     11 C8          2.1318    0.0753    0.8909 C.3       1 <0>        -0.1159
     12 C9          2.1889   -0.1630   -0.6428 C.3       1 <0>        -0.1601
     13 C10         0.7341   -0.0346   -1.1593 C.3       1 <0>         0.1098
     14 H4          0.3899   -0.9882   -1.5598 H         1 <0>         0.0551
     15 O1          0.6517    0.9825   -2.1597 O.3       1 <0>        -0.5601
     16 C11         0.8988   -0.1776    3.7458 C.3       1 <0>        -0.0778
     17 C12         0.2914    0.4243    5.0134 C.3       1 <0>        -0.1134
     18 C13        -1.1793    0.0158    5.1303 C.3       1 <0>        -0.0647
     19 H5         -1.2516   -1.0691    5.2079 H         1 <0>         0.0752
     20 C14        -1.9350    0.5044    3.9070 C.3       1 <0>        -0.0511
     21 C15        -3.4011    0.0739    4.0086 C.3       1 <0>        -0.1081
     22 C16        -4.0482    0.7368    5.2280 C.3       1 <0>        -0.1748
     23 C17        -3.2210    0.3970    6.4486 C.2       1 <0>         0.3646
     24 O2         -3.7351   -0.0695    7.4367 O.2       1 <0>        -0.4597
     25 C18        -1.7673    0.6611    6.3915 C.3       1 <0>        -0.1740
     26 C19        -1.8535    2.0306    3.8362 C.3       1 <0>        -0.1540
     27 C20         2.3694    0.2311    3.6398 C.3       1 <0>        -0.1323
     28 C21         3.1026   -0.1648    4.9230 C.3       1 <0>        -0.1231
     29 C22         4.5731    0.2440    4.8170 C.3       1 <0>        -0.1185
     30 C23         5.3063   -0.1519    6.1002 C.3       1 <0>        -0.1203
     31 C24         6.7769    0.2568    5.9942 C.3       1 <0>        -0.1192
     32 C25         7.5100   -0.1391    7.2774 C.3       1 <0>        -0.1055
     33 C26         8.9806    0.2697    7.1714 C.3       1 <0>        -0.1353
     34 C27         9.7027   -0.1203    8.4353 C.2       1 <0>         0.5261
     35 O3          9.1005   -0.6709    9.3326 O.2       1 <0>        -0.5385
     36 N1         11.0178    0.1429    8.5686 N.am      1 <0>        -0.6245
     37 C28        11.8645    0.8075    7.5671 C.3       1 <0>         0.0987
     38 C29        13.2948    0.8675    8.1435 C.3       1 <0>        -0.1335
     39 C30        13.2928   -0.2711    9.1975 C.3       1 <0>        -0.1347
     40 C31        11.8442   -0.1824    9.7454 C.3       1 <0>         0.1022
     41 H6          0.9232    2.2486    0.2153 H         1 <0>         0.0529
     42 H7         -0.6489    2.3242   -0.6159 H         1 <0>         0.0575
     43 H8         -0.5856    2.1456    1.1540 H         1 <0>         0.0612
     44 H9         -2.0798    0.2001   -0.7409 H         1 <0>         0.0646
     45 H10        -1.5049   -1.2621    0.1065 H         1 <0>         0.0609
     46 H11        -2.1873    1.4268    1.3936 H         1 <0>         0.0715
     47 H12        -3.1556   -0.0567    1.5065 H         1 <0>         0.0638
     48 H13         2.3357    1.1198    1.1268 H         1 <0>         0.0722
     49 H14         2.8300   -0.5817    1.4095 H         1 <0>         0.0763
     50 H15         2.8212    0.5889   -1.1150 H         1 <0>         0.0712
     51 H16         2.5736   -1.1611   -0.8523 H         1 <0>         0.0654
     52 H17         1.1590    0.7891   -2.9599 H         1 <0>         0.3744
     53 H18         0.8240   -1.2643    3.7867 H         1 <0>         0.0681
     54 H19         0.8381    0.0624    5.8841 H         1 <0>         0.0682
     55 H20         0.3629    1.5110    4.9684 H         1 <0>         0.0679
     56 H21        -3.9318    0.3775    3.1062 H         1 <0>         0.0799
     57 H22        -3.4547   -1.0097    4.1135 H         1 <0>         0.0663
     58 H23        -4.0716    1.8177    5.0894 H         1 <0>         0.0998
     59 H24        -5.0630    0.3602    5.3556 H         1 <0>         0.0861
     60 H25        -1.2905    0.2369    7.2751 H         1 <0>         0.0881
     61 H26        -1.5978    1.7375    6.3640 H         1 <0>         0.1033
     62 H27        -2.4092    2.3842    2.9678 H         1 <0>         0.0605
     63 H28        -2.2826    2.4598    4.7416 H         1 <0>         0.0568
     64 H29        -0.8105    2.3351    3.7488 H         1 <0>         0.0649
     65 H30         2.8267   -0.2746    2.7893 H         1 <0>         0.0833
     66 H31         2.4375    1.3100    3.5005 H         1 <0>         0.0596
     67 H32         2.6453    0.3409    5.7735 H         1 <0>         0.0632
     68 H33         3.0345   -1.2437    5.0623 H         1 <0>         0.0588
     69 H34         5.0304   -0.2617    3.9665 H         1 <0>         0.0589
     70 H35         4.6413    1.3229    4.6777 H         1 <0>         0.0594
     71 H36         4.8491    0.3538    6.9507 H         1 <0>         0.0615
     72 H37         5.2382   -1.2308    6.2395 H         1 <0>         0.0614
     73 H38         7.2341   -0.2489    5.1437 H         1 <0>         0.0614
     74 H39         6.8450    1.3357    5.8549 H         1 <0>         0.0615
     75 H40         7.0528    0.3666    8.1279 H         1 <0>         0.0694
     76 H41         7.4419   -1.2180    7.4167 H         1 <0>         0.0694
     77 H42         9.4379   -0.2361    6.3209 H         1 <0>         0.0919
     78 H43         9.0487    1.3486    7.0321 H         1 <0>         0.0920
     79 H44        11.8621    0.2339    6.6403 H         1 <0>         0.0700
     80 H45        11.4968    1.8167    7.3818 H         1 <0>         0.0699
     81 H46        14.0327    0.6716    7.3655 H         1 <0>         0.0844
     82 H47        13.4794    1.8315    8.6176 H         1 <0>         0.0783
     83 H48        13.4783   -1.2376    8.7289 H         1 <0>         0.0770
     84 H49        14.0195   -0.0750    9.9859 H         1 <0>         0.0859
     85 H50        11.7666    0.6069   10.4932 H         1 <0>         0.0684
     86 H51        11.5402   -1.1393   10.1696 H         1 <0>         0.0787
@<TRIPOS>BOND
     1    1    2 1
     2    1   41 1
     3    1   42 1
     4    1   43 1
     5    2    9 1
     6    2   13 1
     7    2    3 1
     8    3    4 1
     9    3   44 1
    10    3   45 1
    11    4    5 1
    12    4   46 1
    13    4   47 1
    14    5    6 1
    15    5   20 1
    16    5    7 1
    17    7    8 1
    18    7    9 1
    19    7   16 1
    20    9   10 1
    21    9   11 1
    22   11   12 1
    23   11   48 1
    24   11   49 1
    25   12   13 1
    26   12   50 1
    27   12   51 1
    28   13   14 1
    29   13   15 1
    30   15   52 1
    31   16   17 1
    32   16   27 1
    33   16   53 1
    34   17   18 1
    35   17   54 1
    36   17   55 1
    37   18   19 1
    38   18   25 1
    39   18   20 1
    40   20   21 1
    41   20   26 1
    42   21   22 1
    43   21   56 1
    44   21   57 1
    45   22   23 1
    46   22   58 1
    47   22   59 1
    48   23   24 2
    49   23   25 1
    50   25   60 1
    51   25   61 1
    52   26   62 1
    53   26   63 1
    54   26   64 1
    55   27   28 1
    56   27   65 1
    57   27   66 1
    58   28   29 1
    59   28   67 1
    60   28   68 1
    61   29   30 1
    62   29   69 1
    63   29   70 1
    64   30   31 1
    65   30   71 1
    66   30   72 1
    67   31   32 1
    68   31   73 1
    69   31   74 1
    70   32   33 1
    71   32   75 1
    72   32   76 1
    73   33   34 1
    74   33   77 1
    75   33   78 1
    76   34   35 2
    77   34   36 am
    78   36   40 1
    79   36   37 1
    80   37   38 1
    81   37   79 1
    82   37   80 1
    83   38   39 1
    84   38   81 1
    85   38   82 1
    86   39   40 1
    87   39   83 1
    88   39   84 1
    89   40   85 1
    90   40   86 1
@<TRIPOS>MOLECULE
CHEMBL427243__1
   86    90     0     0     0
SMALL
USER_CHARGES

@<TRIPOS>ATOM
      1 C1         -0.0187    1.5258    0.0104 C.3       1 <0>        -0.1330
      2 C2          0.0021   -0.0041    0.0020 C.3       1 <0>        -0.0571
      3 C3         -1.4161   -0.5361    0.0674 C.3       1 <0>        -0.1028
      4 C4         -2.0828    0.0906    1.3034 C.3       1 <0>        -0.1199
      5 C5         -1.3025   -0.2223    2.5757 C.3       1 <0>        -0.0690
      6 H1         -1.3347   -1.2973    2.7528 H         1 <0>         0.0719
      7 C6          0.1645    0.2178    2.4629 C.3       1 <0>        -0.0696
      8 H2          0.2192    1.2972    2.3211 H         1 <0>         0.0872
      9 C7          0.7519   -0.5258    1.2577 C.3       1 <0>        -0.0819
     10 H3          0.6157   -1.6021    1.3636 H         1 <0>         0.0792
     11 C8          2.2062   -0.1865    0.9129 C.3       1 <0>        -0.1122
     12 C9          2.3055   -0.5687   -0.5893 C.3       1 <0>        -0.1572
     13 C10         0.8643   -0.5016   -1.1533 C.3       1 <0>         0.1100
     14 H4          0.5363   -1.4916   -1.4703 H         1 <0>         0.0553
     15 O1          0.8030    0.4153   -2.2476 O.3       1 <0>        -0.5601
     16 C11         0.8988   -0.1776    3.7458 C.3       1 <0>        -0.0791
     17 C12         0.2544    0.5368    4.9342 C.3       1 <0>        -0.1131
     18 C13        -1.2166    0.1293    5.0511 C.3       1 <0>        -0.0645
     19 H5         -1.2848   -0.9438    5.2295 H         1 <0>         0.0795
     20 C14        -1.9420    0.4937    3.7676 C.3       1 <0>        -0.0508
     21 C15        -3.4079    0.0629    3.8714 C.3       1 <0>        -0.1079
     22 C16        -4.0910    0.8331    5.0051 C.3       1 <0>        -0.1750
     23 C17        -3.2949    0.6173    6.2736 C.2       1 <0>         0.3648
     24 O2         -3.8325    0.2424    7.2878 O.2       1 <0>        -0.4597
     25 C18        -1.8417    0.8866    6.2295 C.3       1 <0>        -0.1749
     26 C19        -1.8672    2.0069    3.5543 C.3       1 <0>        -0.1543
     27 C20         0.8008   -1.6914    3.9450 C.3       1 <0>        -0.1189
     28 C21         1.6386   -2.1015    5.1578 C.3       1 <0>        -0.1212
     29 C22         1.5406   -3.6153    5.3570 C.3       1 <0>        -0.1186
     30 C23         2.3784   -4.0254    6.5698 C.3       1 <0>        -0.1199
     31 C24         2.2804   -5.5392    6.7690 C.3       1 <0>        -0.1193
     32 C25         3.1182   -5.9493    7.9818 C.3       1 <0>        -0.1053
     33 C26         3.0202   -7.4631    8.1810 C.3       1 <0>        -0.1354
     34 C27         3.8454   -7.8671    9.3756 C.2       1 <0>         0.5263
     35 O3          4.4521   -7.0269   10.0055 O.2       1 <0>        -0.5385
     36 N1          3.9091   -9.1620    9.7438 N.am      1 <0>        -0.6244
     37 C28         3.2320  -10.2790    9.0691 C.3       1 <0>         0.0986
     38 C29         3.5724  -11.5630    9.8547 C.3       1 <0>        -0.1335
     39 C30         3.9606  -11.0206   11.2555 C.3       1 <0>        -0.1347
     40 C31         4.6745   -9.6937   10.8861 C.3       1 <0>         0.1023
     41 H6          1.0039    1.9031    0.0027 H         1 <0>         0.0527
     42 H7         -0.5459    1.8868   -0.8726 H         1 <0>         0.0574
     43 H8         -0.5289    1.8773    0.9072 H         1 <0>         0.0614
     44 H9         -1.9610   -0.2510   -0.8325 H         1 <0>         0.0643
     45 H10        -1.4008   -1.6217    0.1646 H         1 <0>         0.0607
     46 H11        -2.1323    1.1715    1.1723 H         1 <0>         0.0711
     47 H12        -3.0949   -0.3023    1.4003 H         1 <0>         0.0634
     48 H13         2.3979    0.8772    1.0537 H         1 <0>         0.0695
     49 H14         2.8939   -0.7857    1.5096 H         1 <0>         0.0652
     50 H15         2.9460    0.1401   -1.1141 H         1 <0>         0.0713
     51 H16         2.7012   -1.5790   -0.6929 H         1 <0>         0.0654
     52 H17         1.3325    0.1511   -3.0123 H         1 <0>         0.3744
     53 H18         1.9465    0.1136    3.6703 H         1 <0>         0.0720
     54 H19         0.7797    0.2635    5.8494 H         1 <0>         0.0666
     55 H20         0.3210    1.6150    4.7881 H         1 <0>         0.0669
     56 H21        -3.9160    0.2752    2.9308 H         1 <0>         0.0798
     57 H22        -3.4582   -1.0063    4.0773 H         1 <0>         0.0659
     58 H23        -4.1167    1.8958    4.7639 H         1 <0>         0.0997
     59 H24        -5.1068    0.4621    5.1413 H         1 <0>         0.0858
     60 H25        -1.3863    0.5518    7.1616 H         1 <0>         0.0877
     61 H26        -1.6775    1.9568    6.1043 H         1 <0>         0.1030
     62 H27        -2.4015    2.2720    2.6420 H         1 <0>         0.0604
     63 H28        -2.3227    2.5165    4.4034 H         1 <0>         0.0567
     64 H29        -0.8240    2.3101    3.4655 H         1 <0>         0.0647
     65 H30        -0.2399   -1.9693    4.1116 H         1 <0>         0.0662
     66 H31         1.1749   -2.1998    3.0564 H         1 <0>         0.0634
     67 H32         2.6793   -1.8236    4.9912 H         1 <0>         0.0593
     68 H33         1.2646   -1.5931    6.0465 H         1 <0>         0.0627
     69 H34         0.4999   -3.8933    5.5236 H         1 <0>         0.0589
     70 H35         1.9147   -4.1237    4.4684 H         1 <0>         0.0590
     71 H36         3.4191   -3.7475    6.4032 H         1 <0>         0.0615
     72 H37         2.0043   -3.5170    7.4585 H         1 <0>         0.0617
     73 H38         1.2397   -5.8172    6.9356 H         1 <0>         0.0614
     74 H39         2.6545   -6.0476    5.8803 H         1 <0>         0.0613
     75 H40         4.1589   -5.6714    7.8152 H         1 <0>         0.0694
     76 H41         2.7441   -5.4410    8.8705 H         1 <0>         0.0695
     77 H42         1.9794   -7.7411    8.3476 H         1 <0>         0.0920
     78 H43         3.3942   -7.9715    7.2923 H         1 <0>         0.0918
     79 H44         2.1542  -10.1164    9.0737 H         1 <0>         0.0700
     80 H45         3.5915  -10.3655    8.0437 H         1 <0>         0.0698
     81 H46         2.7024  -12.2162    9.9216 H         1 <0>         0.0845
     82 H47         4.4129  -12.0841    9.3963 H         1 <0>         0.0783
     83 H48         3.0742  -10.8354   11.8622 H         1 <0>         0.0771
     84 H49         4.6440  -11.7018   11.7626 H         1 <0>         0.0859
     85 H50         5.7074   -9.8843   10.5949 H         1 <0>         0.0683
     86 H51         4.6380   -8.9977   11.7241 H         1 <0>         0.0787
@<TRIPOS>BOND
     1    1    2 1
     2    1   41 1
     3    1   42 1
     4    1   43 1
     5    2    9 1
     6    2   13 1
     7    2    3 1
     8    3    4 1
     9    3   44 1
    10    3   45 1
    11    4    5 1
    12    4   46 1
    13    4   47 1
    14    5    6 1
    15    5   20 1
    16    5    7 1
    17    7    8 1
    18    7    9 1
    19    7   16 1
    20    9   10 1
    21    9   11 1
    22   11   12 1
    23   11   48 1
    24   11   49 1
    25   12   13 1
    26   12   50 1
    27   12   51 1
    28   13   14 1
    29   13   15 1
    30   15   52 1
    31   16   17 1
    32   16   27 1
    33   16   53 1
    34   17   18 1
    35   17   54 1
    36   17   55 1
    37   18   19 1
    38   18   25 1
    39   18   20 1
    40   20   21 1
    41   20   26 1
    42   21   22 1
    43   21   56 1
    44   21   57 1
    45   22   23 1
    46   22   58 1
    47   22   59 1
    48   23   24 2
    49   23   25 1
    50   25   60 1
    51   25   61 1
    52   26   62 1
    53   26   63 1
    54   26   64 1
    55   27   28 1
    56   27   65 1
    57   27   66 1
    58   28   29 1
    59   28   67 1
    60   28   68 1
    61   29   30 1
    62   29   69 1
    63   29   70 1
    64   30   31 1
    65   30   71 1
    66   30   72 1
    67   31   32 1
    68   31   73 1
    69   31   74 1
    70   32   33 1
    71   32   75 1
    72   32   76 1
    73   33   34 1
    74   33   77 1
    75   33   78 1
    76   34   35 2
    77   34   36 am
    78   36   40 1
    79   36   37 1
    80   37   38 1
    81   37   79 1
    82   37   80 1
    83   38   39 1
    84   38   81 1
    85   38   82 1
    86   39   40 1
    87   39   83 1
    88   39   84 1
    89   40   85 1
    90   40   86 1
@<TRIPOS>MOLECULE
CHEMBL229264
   33    35     0     0     0
SMALL
USER_CHARGES

@<TRIPOS>ATOM
      1 C1         -0.0184    1.5028    0.0103 C.3       1 <0>        -0.1188
      2 C2          0.0021   -0.0041    0.0020 C.ar      1 <0>        -0.0495
      3 C3          0.0057   -0.6917   -1.2060 C.ar      1 <0>         0.1653
      4 C4          0.0246   -2.0820   -1.2192 C.ar      1 <0>        -0.0871
      5 C5          0.0392   -2.7842   -0.0346 C.ar      1 <0>        -0.0556
      6 C6          0.0356   -2.0979    1.1828 C.ar      1 <0>         0.0043
      7 C7          0.0228   -0.6990    1.1925 C.ar      1 <0>         0.0054
      8 Cl1         0.0260    0.1602    2.7010 Cl        1 <0>        -0.0328
      9 C8          0.0504   -2.8245    2.4167 C.1       1 <0>         0.2453
     10 N1          0.0621   -3.4008    3.3956 N.1       1 <0>        -0.3834
     11 N2         -0.0100    0.0170   -2.4119 N.am      1 <0>        -0.5394
     12 C9          1.0985    0.4134   -3.0760 C.2       1 <0>         0.5442
     13 O1          2.2507    0.3019   -2.7160 O.2       1 <0>        -0.4435
     14 C10         0.5965    1.0232   -4.3600 C.3       1 <0>         0.0489
     15 H1          0.8158    0.4055   -5.2308 H         1 <0>         0.1543
     16 C11         1.0673    2.4810   -4.5338 C.3       1 <0>         0.1112
     17 H2          1.9988    2.5233   -5.0982 H         1 <0>         0.0944
     18 C12        -0.0978    3.1077   -5.3434 C.3       1 <0>        -0.1693
     19 C13        -1.3110    2.1921   -5.0669 C.3       1 <0>         0.1619
     20 N3         -0.8620    1.1702   -4.1053 N.am      1 <0>        -0.6305
     21 C14        -1.1278    0.3839   -3.0580 C.2       1 <0>         0.7419
     22 O2         -2.2471    0.0444   -2.7280 O.2       1 <0>        -0.5188
     23 O3          1.2140    3.1229   -3.2655 O.3       1 <0>        -0.5547
     24 H3          1.0042    1.8801    0.0026 H         1 <0>         0.0878
     25 H4         -0.5455    1.8639   -0.8728 H         1 <0>         0.0715
     26 H5         -0.5286    1.8543    0.9071 H         1 <0>         0.0830
     27 H6          0.0273   -2.6121   -2.1601 H         1 <0>         0.1477
     28 H7          0.0531   -3.8641   -0.0463 H         1 <0>         0.1557
     29 H8         -0.2999    4.1205   -4.9948 H         1 <0>         0.0951
     30 H9          0.1392    3.1122   -6.4073 H         1 <0>         0.1000
     31 H10        -2.1309    2.7744   -4.6462 H         1 <0>         0.0887
     32 H11        -1.6310    1.7066   -5.9889 H         1 <0>         0.0855
     33 H12         1.5086    4.0422   -3.3217 H         1 <0>         0.3914
@<TRIPOS>BOND
     1    1    2 1
     2    1   24 1
     3    1   25 1
     4    1   26 1
     5    2    7 ar
     6    2    3 ar
     7    3    4 ar
     8    3   11 1
     9    4    5 ar
    10    4   27 1
    11    5    6 ar
    12    5   28 1
    13    6    7 ar
    14    6    9 1
    15    7    8 1
    16    9   10 3
    17   11   21 am
    18   11   12 am
    19   12   13 2
    20   12   14 1
    21   14   15 1
    22   14   20 1
    23   14   16 1
    24   16   17 1
    25   16   18 1
    26   16   23 1
    27   18   19 1
    28   18   29 1
    29   18   30 1
    30   19   20 1
    31   19   31 1
    32   19   32 1
    33   20   21 am
    34   21   22 2
    35   23   33 1
@<TRIPOS>MOLECULE
CHEMBL64294
   42    45     0     0     0
SMALL
USER_CHARGES

@<TRIPOS>ATOM
      1 C1         -0.0184    1.5028    0.0103 C.3       1 <0>        -0.1311
      2 C2          0.0021   -0.0041    0.0020 C.2       1 <0>        -0.0719
      3 C3         -0.0942   -0.6656   -1.1441 C.2       1 <0>        -0.1619
      4 C4         -0.0900   -2.1709   -1.1756 C.3       1 <0>         0.2118
      5 N1          0.6753   -2.6936   -0.0364 N.pl3     1 <0>        -0.7387
      6 C5          0.4767   -2.1133    1.2178 C.ar      1 <0>         0.2284
      7 C6          0.1355   -0.7510    1.2687 C.ar      1 <0>        -0.0950
      8 C7         -0.0682   -0.1418    2.4965 C.ar      1 <0>        -0.0697
      9 C8          0.0695   -0.8929    3.6666 C.ar      1 <0>        -0.0923
     10 C9          0.4201   -2.2367    3.6065 C.ar      1 <0>        -0.0516
     11 C10         0.6154   -2.8446    2.3840 C.ar      1 <0>        -0.1694
     12 C11        -0.1817   -0.2102    4.9582 C.ar      1 <0>        -0.0963
     13 C12         0.2211   -0.7640    6.1652 C.ar      1 <0>        -0.0203
     14 C13        -0.0322   -0.0895    7.3446 C.ar      1 <0>        -0.0740
     15 C14        -0.6832    1.1314    7.3221 C.ar      1 <0>        -0.0247
     16 C15        -1.0885    1.6893    6.1236 C.ar      1 <0>        -0.1387
     17 C16        -0.8446    1.0242    4.9348 C.ar      1 <0>         0.1769
     18 O1         -1.2445    1.5456    3.7480 O.3       1 <0>        -0.3010
     19 C17        -0.4295    1.3161    2.5987 C.3       1 <0>         0.0876
     20 N2          0.3936   -0.6750    8.6357 N.pl3     1 <0>         0.0385
     21 O2          0.9621   -1.7418    8.6575 O.2       1 <0>        -0.1618
     22 O3          0.1729   -0.0865    9.6685 O.3       1 <0>        -0.1585
     23 C18        -1.5291   -2.6847   -1.0994 C.3       1 <0>        -0.1592
     24 C19         0.5499   -2.6499   -2.4802 C.3       1 <0>        -0.1531
     25 H1          0.5897    1.8698    0.8371 H         1 <0>         0.0738
     26 H2          0.3844    1.8768   -0.9310 H         1 <0>         0.0745
     27 H3         -1.0440    1.8516    0.1308 H         1 <0>         0.0807
     28 H4         -0.1767   -0.1152   -2.0696 H         1 <0>         0.1273
     29 H5          1.3033   -3.4236   -0.1525 H         1 <0>         0.4055
     30 H6          0.5320   -2.8063    4.5172 H         1 <0>         0.1328
     31 H7          0.8883   -3.8886    2.3385 H         1 <0>         0.1329
     32 H8          0.7293   -1.7168    6.1829 H         1 <0>         0.1576
     33 H9         -0.8760    1.6528    8.2480 H         1 <0>         0.1616
     34 H10        -1.5956    2.6428    6.1153 H         1 <0>         0.1589
     35 H11         0.4817    1.9089    2.6784 H         1 <0>         0.0835
     36 H12        -0.9748    1.6162    1.7039 H         1 <0>         0.1444
     37 H13        -2.0962   -2.3044   -1.9491 H         1 <0>         0.0680
     38 H14        -1.5276   -3.7745   -1.1222 H         1 <0>         0.0621
     39 H15        -1.9890   -2.3413   -0.1728 H         1 <0>         0.0571
     40 H16         1.5742   -2.2817   -2.5391 H         1 <0>         0.0642
     41 H17         0.5537   -3.7396   -2.5043 H         1 <0>         0.0652
     42 H18        -0.0221   -2.2697   -3.3265 H         1 <0>         0.0762
@<TRIPOS>BOND
     1    1    2 1
     2    1   25 1
     3    1   26 1
     4    1   27 1
     5    2    7 1
     6    2    3 2
     7    3    4 1
     8    3   28 1
     9    4    5 1
    10    4   23 1
    11    4   24 1
    12    5    6 1
    13    5   29 1
    14    6   11 ar
    15    6    7 ar
    16    7    8 ar
    17    8   19 1
    18    8    9 ar
    19    9   10 ar
    20    9   12 1
    21   10   11 ar
    22   10   30 1
    23   11   31 1
    24   12   17 ar
    25   12   13 ar
    26   13   14 ar
    27   13   32 1
    28   14   15 ar
    29   14   20 1
    30   15   16 ar
    31   15   33 1
    32   16   17 ar
    33   16   34 1
    34   17   18 1
    35   18   19 1
    36   19   35 1
    37   19   36 1
    38   20   21 2
    39   20   22 1
    40   23   37 1
    41   23   38 1
    42   23   39 1
    43   24   40 1
    44   24   41 1
    45   24   42 1
@<TRIPOS>MOLECULE
CHEMBL391439
   46    49     0     0     0
SMALL
USER_CHARGES

@<TRIPOS>ATOM
      1 C1          0.3421    1.4846   -0.0940 C.3       1 <0>        -0.1435
      2 C2          0.0021   -0.0041    0.0020 C.3       1 <0>         0.0960
      3 C3          0.6360   -0.5854    1.2395 C.ar      1 <0>        -0.0551
      4 C4         -0.1364   -1.2858    2.1473 C.ar      1 <0>        -0.0830
      5 C5          0.4439   -1.8197    3.2822 C.ar      1 <0>        -0.1552
      6 C6          1.7994   -1.6529    3.5099 C.ar      1 <0>         0.0837
      7 C7          2.5720   -0.9512    2.6000 C.ar      1 <0>        -0.1549
      8 C8          1.9905   -0.4227    1.4631 C.ar      1 <0>        -0.0790
      9 F1          2.3677   -2.1740    4.6192 F         1 <0>        -0.1480
     10 C9          0.5288   -0.7191   -1.2155 C.2       1 <0>        -0.1827
     11 C10         1.1937   -0.1647   -2.2417 C.2       1 <0>         0.0429
     12 N1          1.5127   -1.1241   -3.1626 N.pl3     1 <0>        -0.5717
     13 H1          1.9942   -0.9650   -3.9894 H         1 <0>         0.4128
     14 C11         1.0485   -2.3512   -2.7396 C.ar      1 <0>         0.0569
     15 C12         0.4179   -2.1517   -1.5002 C.ar      1 <0>        -0.0530
     16 C13        -0.1499   -3.2348   -0.8232 C.ar      1 <0>        -0.1898
     17 C14        -0.0873   -4.4866   -1.3672 C.ar      1 <0>        -0.0720
     18 C15         0.5360   -4.6952   -2.5890 C.ar      1 <0>        -0.2788
     19 C16         1.0991   -3.6374   -3.2818 C.ar      1 <0>         0.2923
     20 N2          1.7273   -3.8576   -4.5116 N.2       1 <0>        -1.1119
     21 S1          1.7847   -5.3843   -5.1505 S.o2      1 <0>         2.5318
     22 O1          2.5658   -6.1335   -4.2298 O.2       1 <0>        -1.0289
     23 O2          0.4273   -5.7262   -5.3951 O.2       1 <0>        -1.0293
     24 C17         2.6751   -5.1996   -6.7200 C.3       1 <0>        -0.6398
     25 C18        -1.5163   -0.1766    0.0777 C.3       1 <0>        -0.1308
     26 C19        -2.3807    1.0640   -0.1561 C.3       1 <0>        -0.1819
     27 C20        -2.2443    0.4809    1.2518 C.3       1 <0>        -0.1864
     28 H2          1.4238    1.6075   -0.1479 H         1 <0>         0.0585
     29 H3         -0.1164    1.9050   -0.9890 H         1 <0>         0.0649
     30 H4         -0.0389    2.0018    0.7866 H         1 <0>         0.0561
     31 H5         -1.1938   -1.4154    1.9696 H         1 <0>         0.1375
     32 H6         -0.1597   -2.3665    3.9914 H         1 <0>         0.1288
     33 H7          3.6294   -0.8202    2.7767 H         1 <0>         0.1284
     34 H8          2.5937    0.1208    0.7510 H         1 <0>         0.1281
     35 H9          1.4397    0.8834   -2.3275 H         1 <0>         0.1537
     36 H10        -0.6369   -3.0824    0.1286 H         1 <0>         0.0979
     37 H11        -0.5268   -5.3213   -0.8412 H         1 <0>         0.0969
     38 H12         0.5773   -5.6907   -3.0059 H         1 <0>         0.1004
     39 H13         3.6729   -4.8053   -6.5275 H         1 <0>         0.1133
     40 H14         2.7562   -6.1708   -7.2082 H         1 <0>         0.1003
     41 H15         2.1314   -4.5118   -7.3675 H         1 <0>         0.1133
     42 H16        -1.8993   -1.1321   -0.2805 H         1 <0>         0.1124
     43 H17        -1.8677    2.0030   -0.3639 H         1 <0>         0.0977
     44 H18        -3.3327    0.9248   -0.6684 H         1 <0>         0.0882
     45 H19        -3.1065   -0.0419    1.6658 H         1 <0>         0.0902
     46 H20        -1.6416    1.0364    1.9704 H         1 <0>         0.0924
@<TRIPOS>BOND
     1    1    2 1
     2    1   28 1
     3    1   29 1
     4    1   30 1
     5    2    3 1
     6    2   10 1
     7    2   25 1
     8    3    8 ar
     9    3    4 ar
    10    4    5 ar
    11    4   31 1
    12    5    6 ar
    13    5   32 1
    14    6    7 ar
    15    6    9 1
    16    7    8 ar
    17    7   33 1
    18    8   34 1
    19   10   15 1
    20   10   11 2
    21   11   12 1
    22   11   35 1
    23   12   13 1
    24   12   14 1
    25   14   19 ar
    26   14   15 ar
    27   15   16 ar
    28   16   17 ar
    29   16   36 1
    30   17   18 ar
    31   17   37 1
    32   18   19 ar
    33   18   38 1
    34   19   20 1
    35   20   21 1
    36   21   22 2
    37   21   23 2
    38   21   24 1
    39   24   39 1
    40   24   40 1
    41   24   41 1
    42   25   27 1
    43   25   26 1
    44   25   42 1
    45   26   27 1
    46   26   43 1
    47   26   44 1
    48   27   45 1
    49   27   46 1
@<TRIPOS>MOLECULE
CHEMBL391439__1
   47    50     0     0     0
SMALL
USER_CHARGES

@<TRIPOS>ATOM
      1 C1          0.6548    1.4208    0.0672 C.3       1 <0>        -0.1488
      2 C2          0.2144   -0.0438    0.1106 C.3       1 <0>         0.0906
      3 C3          0.7992   -0.7083    1.3302 C.ar      1 <0>        -0.0712
      4 C4         -0.0249   -1.3853    2.2099 C.ar      1 <0>        -0.0848
      5 C5          0.5103   -1.9954    3.3285 C.ar      1 <0>        -0.1534
      6 C6          1.8724   -1.9286    3.5679 C.ar      1 <0>         0.0939
      7 C7          2.6968   -1.2503    2.6861 C.ar      1 <0>        -0.1535
      8 C8          2.1600   -0.6454    1.5654 C.ar      1 <0>        -0.0801
      9 F1          2.3967   -2.5243    4.6612 F         1 <0>        -0.1418
     10 C9          0.6998   -0.7513   -1.1283 C.2       1 <0>        -0.1499
     11 C10         1.4121   -0.2100   -2.1295 C.2       1 <0>         0.0612
     12 N1          1.6702   -1.1565   -3.0821 N.pl3     1 <0>        -0.5913
     13 H1          2.1695   -1.0032   -3.8995 H         1 <0>         0.4159
     14 C11         1.1156   -2.3614   -2.7068 C.ar      1 <0>         0.0811
     15 C12         0.4895   -2.1611   -1.4652 C.ar      1 <0>        -0.0708
     16 C13        -0.1605   -3.2240   -0.8314 C.ar      1 <0>        -0.0801
     17 C14        -0.1827   -4.4570   -1.4197 C.ar      1 <0>        -0.1169
     18 C15         0.4355   -4.6664   -2.6441 C.ar      1 <0>        -0.1542
     19 C16         1.0790   -3.6278   -3.2946 C.ar      1 <0>         0.1385
     20 N2          1.7012   -3.8488   -4.5273 N.pl3     1 <0>        -1.0564
     21 S1          1.0358   -4.9080   -5.6125 S.o2      1 <0>         2.6092
     22 O1          1.8609   -4.8118   -6.7655 O.2       1 <0>        -0.9524
     23 O2          0.9244   -6.1333   -4.9016 O.2       1 <0>        -0.9446
     24 C17        -0.6127   -4.2387   -5.9664 C.3       1 <0>        -0.6673
     25 C18        -1.3126   -0.1155    0.1735 C.3       1 <0>        -0.1417
     26 C19        -2.0897    1.1880   -0.0215 C.3       1 <0>        -0.1791
     27 C20        -2.0025    0.5496    1.3663 C.3       1 <0>        -0.1799
     28 H2          1.7427    1.4719    0.0224 H         1 <0>         0.0612
     29 H3          0.2319    1.9014   -0.8149 H         1 <0>         0.0675
     30 H4          0.3037    1.9325    0.9633 H         1 <0>         0.0651
     31 H5         -1.0873   -1.4370    2.0232 H         1 <0>         0.1391
     32 H6         -0.1337   -2.5239    4.0158 H         1 <0>         0.1337
     33 H7          3.7593   -1.1972    2.8720 H         1 <0>         0.1324
     34 H8          2.8034   -0.1201    0.8752 H         1 <0>         0.1279
     35 H9          1.7332    0.8202   -2.1758 H         1 <0>         0.1716
     36 H10        -0.6442   -3.0709    0.1220 H         1 <0>         0.1240
     37 H11        -0.6855   -5.2761   -0.9270 H         1 <0>         0.1306
     38 H12         0.4092   -5.6468   -3.0963 H         1 <0>         0.1631
     39 H13         2.5225   -3.3816   -4.7467 H         1 <0>         0.4219
     40 H14        -0.5159   -3.2379   -6.3872 H         1 <0>         0.1293
     41 H15        -1.1217   -4.8856   -6.6808 H         1 <0>         0.1350
     42 H16        -1.1909   -4.1905   -5.0437 H         1 <0>         0.1326
     43 H17        -1.7569   -1.0302   -0.2190 H         1 <0>         0.1086
     44 H18        -1.5130    2.0966   -0.1946 H         1 <0>         0.1006
     45 H19        -3.0454    1.1310   -0.5425 H         1 <0>         0.0918
     46 H20        -2.9009    0.0727    1.7582 H         1 <0>         0.0952
     47 H21        -1.3685    1.0383    2.1061 H         1 <0>         0.0964
@<TRIPOS>BOND
     1    1    2 1
     2    1   28 1
     3    1   29 1
     4    1   30 1
     5    2    3 1
     6    2   10 1
     7    2   25 1
     8    3    8 ar
     9    3    4 ar
    10    4    5 ar
    11    4   31 1
    12    5    6 ar
    13    5   32 1
    14    6    7 ar
    15    6    9 1
    16    7    8 ar
    17    7   33 1
    18    8   34 1
    19   10   15 1
    20   10   11 2
    21   11   12 1
    22   11   35 1
    23   12   13 1
    24   12   14 1
    25   14   19 ar
    26   14   15 ar
    27   15   16 ar
    28   16   17 ar
    29   16   36 1
    30   17   18 ar
    31   17   37 1
    32   18   19 ar
    33   18   38 1
    34   19   20 1
    35   20   21 1
    36   20   39 1
    37   21   22 2
    38   21   23 2
    39   21   24 1
    40   24   40 1
    41   24   41 1
    42   24   42 1
    43   25   27 1
    44   25   26 1
    45   25   43 1
    46   26   27 1
    47   26   44 1
    48   26   45 1
    49   27   46 1
    50   27   47 1
@<TRIPOS>MOLECULE
CHEMBL483246
   47    51     0     0     0
SMALL
USER_CHARGES

@<TRIPOS>ATOM
      1 C1         -1.5924   -1.1418   -0.3534 C.3       1 <0>         0.0552
      2 N1         -0.9621   -2.4029    0.0448 N.pl3     1 <0>        -0.4151
      3 C2         -0.9921   -3.5781   -0.6718 C.2       1 <0>         0.0569
      4 C3         -0.2844   -4.5284    0.0373 C.2       1 <0>        -0.1061
      5 C4          0.1821   -3.9202    1.2019 C.2       1 <0>        -0.1748
      6 C5         -0.2407   -2.6087    1.1869 C.2       1 <0>         0.0953
      7 C6          0.0359   -1.5989    2.2288 C.ar      1 <0>        -0.0458
      8 C7         -0.0302   -0.2358    1.9284 C.ar      1 <0>        -0.0737
      9 C8          0.2303    0.6847    2.9091 C.ar      1 <0>        -0.1571
     10 C9          0.5670    0.2920    4.2174 C.ar      1 <0>         0.2078
     11 C10         0.6285   -1.0560    4.5145 C.ar      1 <0>        -0.1405
     12 C11         0.3597   -1.9925    3.5228 C.ar      1 <0>        -0.0367
     13 C12         0.9639   -1.6109    5.8643 C.3       1 <0>         0.3557
     14 O1          1.8989   -0.8738    6.5941 O.3       1 <0>        -0.3387
     15 C13         1.4659    0.2866    7.2664 C.3       1 <0>         0.0521
     16 C14         1.2473    1.4159    6.3196 C.2       1 <0>         0.5001
     17 O2          1.5141    2.5280    6.7235 O.2       1 <0>        -0.5204
     18 N2          0.7965    1.3253    5.0967 N.am      1 <0>        -0.6457
     19 C15        -0.3063   -1.6966    6.6707 C.2       1 <0>        -0.0733
     20 C16        -1.5552   -1.7177    6.1714 C.2       1 <0>        -0.1636
     21 C17        -2.4357   -1.8037    7.2742 C.2       1 <0>        -0.2139
     22 C18        -1.6723   -1.8299    8.3814 C.2       1 <0>        -0.0258
     23 O3         -0.3832   -1.7706    8.0095 O.3       1 <0>        -0.1642
     24 C19         1.4985   -3.0082    5.6831 C.2       1 <0>        -0.0262
     25 C20         2.7938   -3.3429    5.5437 C.2       1 <0>        -0.1580
     26 C21         2.8406   -4.7488    5.4018 C.2       1 <0>        -0.2128
     27 C22         1.5711   -5.1892    5.4629 C.2       1 <0>        -0.0269
     28 O4          0.7629   -4.1310    5.6392 O.3       1 <0>        -0.1641
     29 C23        -1.6434   -3.7797   -1.9311 C.1       1 <0>         0.2765
     30 N3         -2.1600   -3.9396   -2.9301 N.1       1 <0>        -0.4030
     31 H1         -0.8595   -0.5129   -0.8587 H         1 <0>         0.0862
     32 H2         -2.4221   -1.3479   -1.0296 H         1 <0>         0.0889
     33 H3         -1.9647   -0.6263    0.5319 H         1 <0>         0.0974
     34 H4         -0.1224   -5.5550   -0.2562 H         1 <0>         0.1547
     35 H5          0.7721   -4.3909    1.9745 H         1 <0>         0.1513
     36 H6         -0.2844    0.0896    0.9305 H         1 <0>         0.1389
     37 H7          0.1763    1.7370    2.6721 H         1 <0>         0.1389
     38 H8          0.4074   -3.0449    3.7605 H         1 <0>         0.1432
     39 H9          0.5318    0.0703    7.7849 H         1 <0>         0.1024
     40 H10         2.2196    0.5763    7.9986 H         1 <0>         0.1522
     41 H11         0.5707    2.1901    4.7198 H         1 <0>         0.4037
     42 H12        -1.8321   -1.6764    5.1284 H         1 <0>         0.1499
     43 H13        -3.5144   -1.8408    7.2351 H         1 <0>         0.1535
     44 H14        -2.0345   -1.8922    9.3970 H         1 <0>         0.2086
     45 H15         3.6364   -2.6673    5.5402 H         1 <0>         0.1541
     46 H16         3.7258   -5.3533    5.2693 H         1 <0>         0.1540
     47 H17         1.2555   -6.2192    5.3872 H         1 <0>         0.2087
@<TRIPOS>BOND
     1    1    2 1
     2    1   31 1
     3    1   32 1
     4    1   33 1
     5    2    6 1
     6    2    3 1
     7    3    4 2
     8    3   29 1
     9    4    5 1
    10    4   34 1
    11    5    6 2
    12    5   35 1
    13    6    7 1
    14    7   12 ar
    15    7    8 ar
    16    8    9 ar
    17    8   36 1
    18    9   10 ar
    19    9   37 1
    20   10   18 1
    21   10   11 ar
    22   11   12 ar
    23   11   13 1
    24   12   38 1
    25   13   14 1
    26   13   19 1
    27   13   24 1
    28   14   15 1
    29   15   16 1
    30   15   39 1
    31   15   40 1
    32   16   17 2
    33   16   18 am
    34   18   41 1
    35   19   23 1
    36   19   20 2
    37   20   21 1
    38   20   42 1
    39   21   22 2
    40   21   43 1
    41   22   23 1
    42   22   44 1
    43   24   28 1
    44   24   25 2
    45   25   26 1
    46   25   45 1
    47   26   27 2
    48   26   46 1
    49   27   28 1
    50   27   47 1
    51   29   30 3
@<TRIPOS>MOLECULE
CHEMBL419633
   50    52     0     0     0
SMALL
USER_CHARGES

@<TRIPOS>ATOM
      1 C1         -0.0184    1.5028    0.0103 C.3       1 <0>        -0.0761
      2 C2          0.0021   -0.0041    0.0020 C.ar      1 <0>        -0.1508
      3 C3          0.0058   -0.6930   -1.2029 C.ar      1 <0>         0.2860
      4 C4          0.0246   -2.0824   -1.2070 C.ar      1 <0>        -0.2579
      5 C5          0.0396   -2.7781   -0.0132 C.ar      1 <0>        -0.0737
      6 C6          0.0355   -2.0956    1.1877 C.ar      1 <0>        -0.2193
      7 C7          0.0230   -0.7057    1.1989 C.ar      1 <0>         0.1901
      8 N1          0.0256   -0.0163    2.4135 N.pl3     1 <0>        -0.6510
      9 C8          1.2955    0.3621    3.0383 C.3       1 <0>         0.1872
     10 C9          1.7078    1.7273    2.5513 C.ar      1 <0>        -0.0972
     11 C10         2.4887    1.8499    1.4172 C.ar      1 <0>        -0.0813
     12 C11         2.8669    3.1022    0.9705 C.ar      1 <0>        -0.1234
     13 C12         2.4638    4.2320    1.6576 C.ar      1 <0>        -0.1236
     14 C13         1.6821    4.1095    2.7911 C.ar      1 <0>        -0.1303
     15 C14         1.3004    2.8573    3.2353 C.ar      1 <0>        -0.1098
     16 C15        -1.2416    0.3285    3.0628 C.3       1 <0>         0.1848
     17 C16        -1.6529   -0.7888    3.9867 C.ar      1 <0>        -0.0920
     18 C17        -2.4373   -1.8239    3.5131 C.ar      1 <0>        -0.0950
     19 C18        -2.8146   -2.8487    4.3606 C.ar      1 <0>        -0.1227
     20 C19        -2.4072   -2.8388    5.6815 C.ar      1 <0>        -0.1281
     21 C20        -1.6220   -1.8042    6.1548 C.ar      1 <0>        -0.1275
     22 C21        -1.2411   -0.7816    5.3063 C.ar      1 <0>        -0.1115
     23 N2         -0.0099    0.0095   -2.4099 N.2       1 <0>        -1.0924
     24 S1         -0.0054   -0.8133   -3.8470 S.o2      1 <0>         2.5221
     25 O1          1.2388   -1.4995   -3.8681 O.2       1 <0>        -1.0326
     26 O2         -1.2302   -1.5338   -3.8561 O.2       1 <0>        -1.0330
     27 C22        -0.0296    0.4762   -5.1226 C.3       1 <0>        -0.6376
     28 H1          1.0042    1.8801    0.0026 H         1 <0>         0.0572
     29 H2         -0.5455    1.8639   -0.8728 H         1 <0>         0.0577
     30 H3         -0.5286    1.8543    0.9071 H         1 <0>         0.0358
     31 H4          0.0271   -2.6190   -2.1442 H         1 <0>         0.0971
     32 H5          0.0542   -3.8580   -0.0192 H         1 <0>         0.0961
     33 H6          0.0469   -2.6424    2.1189 H         1 <0>         0.0970
     34 H7          1.1754    0.3837    4.1214 H         1 <0>         0.0648
     35 H8          2.0623   -0.3654    2.7722 H         1 <0>         0.0696
     36 H9          2.8037    0.9673    0.8805 H         1 <0>         0.1210
     37 H10         3.4776    3.1980    0.0849 H         1 <0>         0.1170
     38 H11         2.7598    5.2104    1.3089 H         1 <0>         0.1131
     39 H12         1.3674    4.9921    3.3280 H         1 <0>         0.1128
     40 H13         0.6865    2.7618    4.1188 H         1 <0>         0.1125
     41 H14        -1.1179    1.2471    3.6363 H         1 <0>         0.0659
     42 H15        -2.0106    0.4744    2.3043 H         1 <0>         0.0717
     43 H16        -2.7557   -1.8316    2.4812 H         1 <0>         0.1221
     44 H17        -3.4281   -3.6570    3.9908 H         1 <0>         0.1165
     45 H18        -2.7025   -3.6391    6.3437 H         1 <0>         0.1138
     46 H19        -1.3039   -1.7963    7.1869 H         1 <0>         0.1142
     47 H20        -0.6246    0.0248    5.6751 H         1 <0>         0.1148
     48 H21         0.8523    1.1081   -5.0171 H         1 <0>         0.1137
     49 H22        -0.0279    0.0118   -6.1088 H         1 <0>         0.0986
     50 H23        -0.9275    1.0834   -5.0085 H         1 <0>         0.1137
@<TRIPOS>BOND
     1    1    2 1
     2    1   28 1
     3    1   29 1
     4    1   30 1
     5    2    7 ar
     6    2    3 ar
     7    3    4 ar
     8    3   23 1
     9    4    5 ar
    10    4   31 1
    11    5    6 ar
    12    5   32 1
    13    6    7 ar
    14    6   33 1
    15    7    8 1
    16    8    9 1
    17    8   16 1
    18    9   10 1
    19    9   34 1
    20    9   35 1
    21   10   15 ar
    22   10   11 ar
    23   11   12 ar
    24   11   36 1
    25   12   13 ar
    26   12   37 1
    27   13   14 ar
    28   13   38 1
    29   14   15 ar
    30   14   39 1
    31   15   40 1
    32   16   17 1
    33   16   41 1
    34   16   42 1
    35   17   22 ar
    36   17   18 ar
    37   18   19 ar
    38   18   43 1
    39   19   20 ar
    40   19   44 1
    41   20   21 ar
    42   20   45 1
    43   21   22 ar
    44   21   46 1
    45   22   47 1
    46   23   24 1
    47   24   25 2
    48   24   26 2
    49   24   27 1
    50   27   48 1
    51   27   49 1
    52   27   50 1
