@<TRIPOS>MOLECULE
2AM9-TES
 49 52 0 0 0
SMALL
SF_CHARGES


@<TRIPOS>ATOM
1    C        26.9610    5.2750    4.7480  C.3        1 SUBUNIT     -0.0656
2    C        26.0870    6.5150    5.0500  C.3        1 SUBUNIT     -0.0662
3    C        24.7140    6.3800    4.4550  C.2        1 SUBUNIT      0.4747
4    O        24.0440    7.4060    3.9390  O.2        1 SUBUNIT     -0.5430
5    C        24.1250    5.0470    4.4570  C.2        1 SUBUNIT     -0.1242
6    C        24.8080    3.9090    4.8030  C.2        1 SUBUNIT     -0.0657
7    C        24.0890    2.5690    4.7900  C.3        1 SUBUNIT     -0.0531
8    C        24.8770    1.4740    4.0590  C.3        1 SUBUNIT     -0.0767
9    C        26.3060    1.3630    4.6670  C.3        1 SUBUNIT     -0.0383
10   C        27.0680    2.7200    4.5650  C.3        1 SUBUNIT     -0.0418
11   C        26.3230    3.9250    5.2440  C.3        1 SUBUNIT      0.0245
12   C        28.5550    2.7000    5.0980  C.3        1 SUBUNIT     -0.0758
13   C        29.3370    1.5340    4.4490  C.3        1 SUBUNIT     -0.0785
14   C        28.6170    0.1640    4.6020  C.3        1 SUBUNIT     -0.0155
15   C        27.1900    0.2970    3.9730  C.3        1 SUBUNIT     -0.0431
16   C        26.6680   -1.1630    3.8940  C.3        1 SUBUNIT     -0.0775
17   C        27.9500   -1.9990    3.6690  C.3        1 SUBUNIT     -0.0922
18   C        29.1270   -0.9850    3.6840  C.3        1 SUBUNIT      0.2214
19   O        30.3270   -1.5900    4.2060  O.3        1 SUBUNIT     -0.5695
20   C        28.5870   -0.2730    6.1200  C.3        1 SUBUNIT     -0.1169
21   C        26.3440    3.8460    6.7980  C.3        1 SUBUNIT     -0.1185
22   H        27.1096    5.2160    3.6647  H          1 SUBUNIT      0.0408
23   H        27.9285    5.4088    5.2429  H          1 SUBUNIT      0.0408
24   H        25.9873    6.6326    6.1341  H          1 SUBUNIT      0.0384
25   H        26.5639    7.4058    4.6281  H          1 SUBUNIT      0.0384
26   H        23.0951    4.9144    4.1752  H          1 SUBUNIT      0.0832
27   H        23.9263    2.2526    5.8256  H          1 SUBUNIT      0.0394
28   H        23.1228    2.6986    4.2913  H          1 SUBUNIT      0.0394
29   H        24.3549    0.5180    4.1709  H          1 SUBUNIT      0.0431
30   H        24.9487    1.7292    2.9966  H          1 SUBUNIT      0.0431
31   H        26.1442    1.0672    5.7088  H          1 SUBUNIT      0.0417
32   H        27.0890    2.8653    3.4799  H          1 SUBUNIT      0.0422
33   H        29.0478    3.6447    4.8457  H          1 SUBUNIT      0.0449
34   H        28.5532    2.5676    6.1850  H          1 SUBUNIT      0.0449
35   H        29.4598    1.7484    3.3822  H          1 SUBUNIT      0.0454
36   H        30.3213    1.4679    4.9242  H          1 SUBUNIT      0.0454
37   H        27.1773    0.7236    2.9646  H          1 SUBUNIT      0.0433
38   H        26.1729   -1.4523    4.8269  H          1 SUBUNIT      0.0450
39   H        25.9717   -1.2846    3.0577  H          1 SUBUNIT      0.0450
40   H        28.0696   -2.7346    4.4713  H          1 SUBUNIT      0.0440
41   H        27.9028   -2.5148    2.7042  H          1 SUBUNIT      0.0440
42   H        29.4377   -0.6473    2.6898  H          1 SUBUNIT      0.0218
43   H        31.0887   -1.1768    3.7927  H          1 SUBUNIT      0.3792
44   H        29.6015   -0.3719    6.5200  H          1 SUBUNIT      0.0425
45   H        28.0821   -1.2371    6.2409  H          1 SUBUNIT      0.0425
46   H        28.0550    0.4644    6.7302  H          1 SUBUNIT      0.0425
47   H        27.3690    3.8978    7.1797  H          1 SUBUNIT      0.0401
48   H        25.9011    2.9082    7.1493  H          1 SUBUNIT      0.0401
49   H        25.7778    4.6722    7.2406  H          1 SUBUNIT      0.0401
@<TRIPOS>BOND
     1    1    2 1
     2    1   11 1
     3    2    3 1
     4    3    4 2
     5    3    5 1
     6    5    6 2
     7    6    7 1
     8    6   11 1
     9    7    8 1
    10    8    9 1
    11    9   10 1
    12    9   15 1
    13   10   11 1
    14   10   12 1
    15   11   21 1
    16   12   13 1
    17   13   14 1
    18   14   15 1
    19   14   18 1
    20   14   20 1
    21   15   16 1
    22   16   17 1
    23   17   18 1
    24   18   19 1
    25    1   22 1
    26    1   23 1
    27    2   24 1
    28    2   25 1
    29    5   26 1
    30    7   27 1
    31    7   28 1
    32    8   29 1
    33    8   30 1
    34    9   31 1
    35   10   32 1
    36   12   33 1
    37   12   34 1
    38   13   35 1
    39   13   36 1
    40   15   37 1
    41   16   38 1
    42   16   39 1
    43   17   40 1
    44   17   41 1
    45   18   42 1
    46   19   43 1
    47   20   44 1
    48   20   45 1
    49   20   46 1
    50   21   47 1
    51   21   48 1
    52   21   49 1
