@<TRIPOS>MOLECULE
CHEMBL436848
   47    50     0     0     0
SMALL
USER_CHARGES

@<TRIPOS>ATOM
      1 C1         -0.3182    1.3105   -0.2793 C.3       1 <0>        -0.1080
      2 C2         -0.2754   -0.1928   -0.1819 C.ar      1 <0>        -0.1516
      3 C3         -0.3738   -0.9572   -1.3234 C.ar      1 <0>        -0.0558
      4 C4         -0.3342   -2.3494   -1.2309 C.ar      1 <0>        -0.0805
      5 C5         -0.1971   -2.9590    0.0175 C.ar      1 <0>         0.0282
      6 C6         -0.1001   -2.1873    1.1610 C.ar      1 <0>        -0.1343
      7 C7         -0.1310   -0.8032    1.0611 C.ar      1 <0>         0.2429
      8 N1         -0.0197   -0.0008    2.2009 N.pl3     1 <0>        -0.7325
      9 C8         -0.1669   -0.6211    3.5244 C.3       1 <0>         0.1699
     10 C9          0.6476   -1.9214    3.5261 C.3       1 <0>        -0.1197
     11 C10         0.0412   -2.8771    2.4925 C.3       1 <0>        -0.0416
     12 C11         0.9654   -4.0868    2.3390 C.3       1 <0>        -0.1599
     13 C12        -1.6412   -0.9328    3.7894 C.3       1 <0>        -0.1625
     14 C13         0.3655    0.3252    4.6023 C.3       1 <0>        -0.1540
     15 Cl1        -0.1488   -4.6903    0.1348 Cl        1 <0>        -0.0470
     16 C14        -0.4378   -3.1764   -2.4518 C.2       1 <0>         0.1242
     17 C15         0.2741   -4.3053   -2.6948 C.2       1 <0>        -0.1737
     18 C16        -0.1403   -4.7960   -4.0082 C.ar      1 <0>        -0.1073
     19 C17         0.2262   -5.8949   -4.7907 C.ar      1 <0>        -0.0698
     20 C18        -0.3597   -6.0849   -6.0100 C.ar      1 <0>        -0.1476
     21 C19        -1.3167   -5.1950   -6.4788 C.ar      1 <0>        -0.0982
     22 C20        -1.6927   -4.1048   -5.7245 C.ar      1 <0>        -0.1318
     23 C21        -1.1103   -3.8911   -4.4797 C.ar      1 <0>         0.1024
     24 N2         -1.2752   -2.9225   -3.5134 N.pl3     1 <0>        -0.5902
     25 H1         -1.8877   -2.1728   -3.5738 H         1 <0>         0.4132
     26 H2          0.6933    1.6950   -0.4108 H         1 <0>         0.0695
     27 H3         -0.9313    1.6020   -1.1321 H         1 <0>         0.0695
     28 H4         -0.7473    1.7218    0.6343 H         1 <0>         0.0635
     29 H5         -0.4816   -0.4811   -2.2868 H         1 <0>         0.1286
     30 H6          0.1523    0.9503    2.1190 H         1 <0>         0.4034
     31 H7          1.6843   -1.7033    3.2695 H         1 <0>         0.0736
     32 H8          0.6025   -2.3793    4.5142 H         1 <0>         0.0803
     33 H9         -0.9392   -3.2145    2.8287 H         1 <0>         0.0853
     34 H10         1.7103   -3.8797    1.5706 H         1 <0>         0.0597
     35 H11         1.4661   -4.2840    3.2868 H         1 <0>         0.0522
     36 H12         0.3780   -4.9584    2.0500 H         1 <0>         0.0747
     37 H13        -2.0103   -1.6187    3.0268 H         1 <0>         0.0625
     38 H14        -1.7444   -1.3927    4.7722 H         1 <0>         0.0673
     39 H15        -2.2192   -0.0093    3.7579 H         1 <0>         0.0586
     40 H16        -0.1974    1.2583    4.5769 H         1 <0>         0.0624
     41 H17         0.2537   -0.1400    5.5817 H         1 <0>         0.0751
     42 H18         1.4195    0.5316    4.4162 H         1 <0>         0.0637
     43 H19         1.0077   -4.7556   -2.0425 H         1 <0>         0.1485
     44 H20         0.9702   -6.5911   -4.4326 H         1 <0>         0.1217
     45 H21        -0.0760   -6.9338   -6.6143 H         1 <0>         0.1220
     46 H22        -1.7709   -5.3587   -7.4449 H         1 <0>         0.1245
     47 H23        -2.4382   -3.4186   -6.0985 H         1 <0>         0.1187
@<TRIPOS>BOND
     1    1    2 1
     2    1   26 1
     3    1   27 1
     4    1   28 1
     5    2    7 ar
     6    2    3 ar
     7    3    4 ar
     8    3   29 1
     9    4    5 ar
    10    4   16 1
    11    5    6 ar
    12    5   15 1
    13    6   11 1
    14    6    7 ar
    15    7    8 1
    16    8    9 1
    17    8   30 1
    18    9   10 1
    19    9   13 1
    20    9   14 1
    21   10   11 1
    22   10   31 1
    23   10   32 1
    24   11   12 1
    25   11   33 1
    26   12   34 1
    27   12   35 1
    28   12   36 1
    29   13   37 1
    30   13   38 1
    31   13   39 1
    32   14   40 1
    33   14   41 1
    34   14   42 1
    35   16   24 1
    36   16   17 2
    37   17   18 1
    38   17   43 1
    39   18   23 ar
    40   18   19 ar
    41   19   20 ar
    42   19   44 1
    43   20   21 ar
    44   20   45 1
    45   21   22 ar
    46   21   46 1
    47   22   23 ar
    48   22   47 1
    49   23   24 1
    50   24   25 1
@<TRIPOS>MOLECULE
CHEMBL436848__1
   47    50     0     0     0
SMALL
USER_CHARGES

@<TRIPOS>ATOM
      1 C1         -0.1487    1.5795    0.1592 C.3       1 <0>        -0.1047
      2 C2         -0.1219    0.0739    0.1013 C.ar      1 <0>        -0.1516
      3 C3         -0.1687   -0.5667   -1.1171 C.ar      1 <0>        -0.0559
      4 C4         -0.1435   -1.9614   -1.1684 C.ar      1 <0>        -0.0803
      5 C5         -0.0692   -2.6988    0.0146 C.ar      1 <0>         0.0284
      6 C6         -0.0210   -2.0511    1.2355 C.ar      1 <0>        -0.1340
      7 C7         -0.0441   -0.6640    1.2794 C.ar      1 <0>         0.2430
      8 N1         -0.0004    0.0140    2.5017 N.pl3     1 <0>        -0.7333
      9 C8          0.3783   -0.7266    3.7125 C.3       1 <0>         0.1712
     10 C9         -0.3787   -2.0611    3.7020 C.3       1 <0>        -0.1205
     11 C10         0.0645   -2.8768    2.4924 C.3       1 <0>        -0.0415
     12 C11        -0.8278   -4.1111    2.3474 C.3       1 <0>        -0.1584
     13 C12        -0.0084    0.0787    4.9547 C.3       1 <0>        -0.1538
     14 C13         1.8861   -0.9862    3.7108 C.3       1 <0>        -0.1623
     15 Cl1        -0.0367   -4.4333   -0.0472 Cl        1 <0>        -0.0469
     16 C14        -0.1958   -2.6559   -2.4723 C.2       1 <0>         0.1244
     17 C15         0.5185   -3.7619   -2.7989 C.2       1 <0>        -0.1739
     18 C16         0.1624   -4.1087   -4.1738 C.ar      1 <0>        -0.1073
     19 C17         0.5571   -5.1248   -5.0489 C.ar      1 <0>        -0.0698
     20 C18         0.0275   -5.1802   -6.3069 C.ar      1 <0>        -0.1476
     21 C19        -0.9001   -4.2351   -6.7237 C.ar      1 <0>        -0.0982
     22 C20        -1.3031   -3.2246   -5.8779 C.ar      1 <0>        -0.1318
     23 C21        -0.7779   -3.1482   -4.5923 C.ar      1 <0>         0.1024
     24 N2         -0.9809   -2.2832   -3.5388 N.pl3     1 <0>        -0.5902
     25 H1         -1.5845   -1.5240   -3.5488 H         1 <0>         0.4131
     26 H2          0.8708    1.9629    0.1182 H         1 <0>         0.0708
     27 H3         -0.7164    1.9656   -0.6874 H         1 <0>         0.0690
     28 H4         -0.6200    1.8991    1.0887 H         1 <0>         0.0604
     29 H5         -0.2250    0.0081   -2.0297 H         1 <0>         0.1287
     30 H6         -0.2164    0.9585    2.5492 H         1 <0>         0.4027
     31 H7         -0.1601   -2.6122    4.6167 H         1 <0>         0.0808
     32 H8         -1.4502   -1.8726    3.6342 H         1 <0>         0.0715
     33 H9          1.0959   -3.1951    2.6442 H         1 <0>         0.0840
     34 H10        -0.2594   -4.9181    1.8850 H         1 <0>         0.0755
     35 H11        -1.1730   -4.4275    3.3317 H         1 <0>         0.0519
     36 H12        -1.6867   -3.8671    1.7223 H         1 <0>         0.0587
     37 H13        -1.0852    0.2476    4.9575 H         1 <0>         0.0632
     38 H14         0.2749   -0.4753    5.8496 H         1 <0>         0.0752
     39 H15         0.5098    1.0376    4.9418 H         1 <0>         0.0627
     40 H16         2.4185   -0.0353    3.6886 H         1 <0>         0.0591
     41 H17         2.1612   -1.5357    4.6110 H         1 <0>         0.0673
     42 H18         2.1528   -1.5725    2.8315 H         1 <0>         0.0628
     43 H19         1.2175   -4.2863   -2.1641 H         1 <0>         0.1484
     44 H20         1.2786   -5.8633   -4.7317 H         1 <0>         0.1217
     45 H21         0.3330   -5.9652   -6.9828 H         1 <0>         0.1220
     46 H22        -1.3099   -4.2922   -7.7214 H         1 <0>         0.1245
     47 H23        -2.0253   -2.4944   -6.2121 H         1 <0>         0.1187
@<TRIPOS>BOND
     1    1    2 1
     2    1   26 1
     3    1   27 1
     4    1   28 1
     5    2    7 ar
     6    2    3 ar
     7    3    4 ar
     8    3   29 1
     9    4    5 ar
    10    4   16 1
    11    5    6 ar
    12    5   15 1
    13    6   11 1
    14    6    7 ar
    15    7    8 1
    16    8    9 1
    17    8   30 1
    18    9   10 1
    19    9   13 1
    20    9   14 1
    21   10   11 1
    22   10   31 1
    23   10   32 1
    24   11   12 1
    25   11   33 1
    26   12   34 1
    27   12   35 1
    28   12   36 1
    29   13   37 1
    30   13   38 1
    31   13   39 1
    32   14   40 1
    33   14   41 1
    34   14   42 1
    35   16   24 1
    36   16   17 2
    37   17   18 1
    38   17   43 1
    39   18   23 ar
    40   18   19 ar
    41   19   20 ar
    42   19   44 1
    43   20   21 ar
    44   20   45 1
    45   21   22 ar
    46   21   46 1
    47   22   23 ar
    48   22   47 1
    49   23   24 1
    50   24   25 1
@<TRIPOS>MOLECULE
CHEMBL1393
   61    65     0     0     0
SMALL
USER_CHARGES

@<TRIPOS>ATOM
      1 C1         -0.0184    1.5028    0.0103 C.3       1 <0>        -0.1834
      2 C2          0.0021   -0.0041    0.0020 C.2       1 <0>         0.2952
      3 O1          1.0609   -0.5963   -0.0113 O.2       1 <0>        -0.4628
      4 S1         -1.4241   -0.8535    0.0111 S.3       1 <0>        -0.0865
      5 C3         -0.9005   -2.5903   -0.0033 C.3       1 <0>        -0.0601
      6 H1         -0.2231   -2.7735    0.8309 H         1 <0>         0.1085
      7 C4         -0.1848   -2.8979   -1.3203 C.3       1 <0>        -0.0972
      8 C5         -1.1754   -2.7526   -2.4610 C.2       1 <0>        -0.0183
      9 C6         -0.8008   -2.0328   -3.5185 C.2       1 <0>        -0.2315
     10 C7         -1.7119   -1.8719   -4.6568 C.2       1 <0>         0.3896
     11 O2         -1.5963   -0.9548   -5.4427 O.2       1 <0>        -0.4548
     12 C8         -2.8054   -2.9124   -4.7998 C.3       1 <0>        -0.1675
     13 C9         -3.4907   -3.0448   -3.4405 C.3       1 <0>        -0.1034
     14 C10        -2.5067   -3.4292   -2.3500 C.3       1 <0>        -0.0255
     15 C11        -3.1324   -3.1361   -0.9805 C.3       1 <0>        -0.0732
     16 H2         -3.3553   -2.0713   -0.9129 H         1 <0>         0.0859
     17 C12        -2.1284   -3.4962    0.1260 C.3       1 <0>        -0.0598
     18 H3         -1.8316   -4.5409    0.0333 H         1 <0>         0.1084
     19 C13        -2.8065   -3.2536    1.4620 C.3       1 <0>        -0.0867
     20 H4         -3.1622   -2.2252    1.5250 H         1 <0>         0.0929
     21 C14        -1.9786   -3.6091    2.7028 C.3       1 <0>        -0.1134
     22 C15        -3.0641   -3.8464    3.7912 C.3       1 <0>        -0.1439
     23 C16        -4.3520   -4.2185    3.0328 C.3       1 <0>         0.1193
     24 C17        -3.9981   -4.2470    1.5548 C.3       1 <0>        -0.0467
     25 C18        -5.0436   -3.7809    0.5608 C.3       1 <0>        -0.1049
     26 C19        -4.4313   -3.9253   -0.8461 C.3       1 <0>        -0.1212
     27 C20        -3.5271   -5.6532    1.1784 C.3       1 <0>        -0.1475
     28 C21        -5.4589   -3.1890    3.3175 C.3       1 <0>        -0.1503
     29 C22        -6.2810   -3.8924    4.4267 C.3       1 <0>        -0.1865
     30 C23        -5.5352   -5.1989    4.6547 C.2       1 <0>         0.4823
     31 O3         -5.5324   -5.8644    5.6632 O.2       1 <0>        -0.4395
     32 O4         -4.8739   -5.4684    3.5007 O.3       1 <0>        -0.3359
     33 C24        -2.2779   -4.9398   -2.4307 C.3       1 <0>        -0.1534
     34 H5          1.0042    1.8801    0.0026 H         1 <0>         0.0923
     35 H6         -0.5455    1.8639   -0.8728 H         1 <0>         0.0982
     36 H7         -0.5286    1.8543    0.9071 H         1 <0>         0.0977
     37 H8          0.6390   -2.1980   -1.4605 H         1 <0>         0.0924
     38 H9          0.1995   -3.9176   -1.2978 H         1 <0>         0.0984
     39 H10         0.1736   -1.5675   -3.5370 H         1 <0>         0.1313
     40 H11        -3.5282   -2.5897   -5.5493 H         1 <0>         0.0938
     41 H12        -2.3710   -3.8689   -5.0905 H         1 <0>         0.1002
     42 H13        -3.9536   -2.0925   -3.1816 H         1 <0>         0.0719
     43 H14        -4.2653   -3.8089   -3.5059 H         1 <0>         0.0853
     44 H15        -1.3988   -4.5162    2.5325 H         1 <0>         0.0749
     45 H16        -1.3274   -2.7808    2.9820 H         1 <0>         0.0735
     46 H17        -2.7654   -4.6639    4.4474 H         1 <0>         0.0789
     47 H18        -3.2196   -2.9365    4.3710 H         1 <0>         0.0819
     48 H19        -5.9363   -4.4010    0.6426 H         1 <0>         0.0727
     49 H20        -5.2965   -2.7376    0.7498 H         1 <0>         0.0726
     50 H21        -5.1455   -3.5623   -1.5851 H         1 <0>         0.0725
     51 H22        -4.2282   -4.9789   -1.0382 H         1 <0>         0.0787
     52 H23        -2.7398   -5.9681    1.8633 H         1 <0>         0.0589
     53 H24        -4.3652   -6.3470    1.2446 H         1 <0>         0.0640
     54 H25        -3.1408   -5.6463    0.1592 H         1 <0>         0.0689
     55 H26        -5.0346   -2.2537    3.6826 H         1 <0>         0.0947
     56 H27        -6.0691   -3.0196    2.4303 H         1 <0>         0.0996
     57 H28        -6.2891   -3.2921    5.3365 H         1 <0>         0.1070
     58 H29        -7.2978   -4.0862    4.0853 H         1 <0>         0.1151
     59 H30        -1.6274   -5.2529   -1.6141 H         1 <0>         0.0630
     60 H31        -3.2342   -5.4569   -2.3522 H         1 <0>         0.0727
     61 H32        -1.8090   -5.1859   -3.3835 H         1 <0>         0.0606
@<TRIPOS>BOND
     1    1    2 1
     2    1   34 1
     3    1   35 1
     4    1   36 1
     5    2    3 2
     6    2    4 1
     7    4    5 1
     8    5    6 1
     9    5   17 1
    10    5    7 1
    11    7    8 1
    12    7   37 1
    13    7   38 1
    14    8   14 1
    15    8    9 2
    16    9   10 1
    17    9   39 1
    18   10   11 2
    19   10   12 1
    20   12   13 1
    21   12   40 1
    22   12   41 1
    23   13   14 1
    24   13   42 1
    25   13   43 1
    26   14   15 1
    27   14   33 1
    28   15   16 1
    29   15   26 1
    30   15   17 1
    31   17   18 1
    32   17   19 1
    33   19   20 1
    34   19   24 1
    35   19   21 1
    36   21   22 1
    37   21   44 1
    38   21   45 1
    39   22   23 1
    40   22   46 1
    41   22   47 1
    42   23   32 1
    43   23   24 1
    44   23   28 1
    45   24   25 1
    46   24   27 1
    47   25   26 1
    48   25   48 1
    49   25   49 1
    50   26   50 1
    51   26   51 1
    52   27   52 1
    53   27   53 1
    54   27   54 1
    55   28   29 1
    56   28   55 1
    57   28   56 1
    58   29   30 1
    59   29   57 1
    60   29   58 1
    61   30   31 2
    62   30   32 1
    63   33   59 1
    64   33   60 1
    65   33   61 1
@<TRIPOS>MOLECULE
CHEMBL404192
   59    64     0     0     0
SMALL
USER_CHARGES

@<TRIPOS>ATOM
      1 C1         -0.0167    1.3786    0.0096 C.ar      1 <0>        -0.1789
      2 C2          1.1695    2.0894    0.0021 C.ar      1 <0>        -0.0724
      3 C3          2.3774    1.4200   -0.0130 C.ar      1 <0>        -0.1979
      4 C4          2.3998    0.0311   -0.0206 C.ar      1 <0>         0.2170
      5 C5          1.2064   -0.6798   -0.0130 C.ar      1 <0>        -0.1976
      6 C6          0.0021   -0.0041    0.0020 C.ar      1 <0>        -0.0721
      7 N1          3.6196   -0.6492   -0.0363 N.pl3     1 <0>        -0.6260
      8 C7          4.8772    0.1050   -0.0387 C.3       1 <0>         0.1254
      9 C8          5.9600   -0.7285   -0.7359 C.3       1 <0>        -0.0985
     10 C9          6.1069   -2.0325    0.0188 C.2       1 <0>        -0.0655
     11 C10         7.3108   -2.5967    0.1104 C.2       1 <0>        -0.1069
     12 C11         7.4040   -3.8863    0.8137 C.2       1 <0>         0.1278
     13 C12         6.2598   -4.6297    1.0841 C.2       1 <0>        -0.2240
     14 C13         6.6510   -5.7769    1.7454 C.2       1 <0>         0.0686
     15 N2          7.9598   -5.7615    1.8704 N.2       1 <0>        -0.2845
     16 N3          8.4588   -4.5870    1.2812 N.pl3     1 <0>        -0.2966
     17 C14         9.8060   -4.2115    1.1953 C.ar      1 <0>         0.1484
     18 C15        10.2651   -3.5190    0.0827 C.ar      1 <0>        -0.1048
     19 C16        11.5932   -3.1499   -0.0001 C.ar      1 <0>        -0.1324
     20 C17        12.4671   -3.4700    1.0255 C.ar      1 <0>         0.0990
     21 C18        12.0112   -4.1606    2.1359 C.ar      1 <0>        -0.1322
     22 C19        10.6826   -4.5265    2.2252 C.ar      1 <0>        -0.0771
     23 F1         13.7662   -3.1084    0.9424 F         1 <0>        -0.1336
     24 C20         4.8964   -4.1486    0.6627 C.3       1 <0>        -0.0259
     25 C21         4.8882   -2.6183    0.6823 C.3       1 <0>        -0.0233
     26 C22         3.6390   -2.1146   -0.0443 C.3       1 <0>         0.1357
     27 C23         4.8232   -2.1342    2.1322 C.3       1 <0>        -0.0638
     28 C24         6.0619   -2.5790    2.8663 C.ar      1 <0>        -0.0851
     29 C25         6.0804   -3.8011    3.5124 C.ar      1 <0>        -0.0652
     30 C26         7.2159   -4.2103    4.1856 C.ar      1 <0>        -0.1480
     31 C27         8.3352   -3.3957    4.2127 C.ar      1 <0>         0.0987
     32 C28         8.3155   -2.1720    3.5653 C.ar      1 <0>        -0.1573
     33 C29         7.1807   -1.7673    2.8884 C.ar      1 <0>        -0.0827
     34 F2          9.4457   -3.7945    4.8709 F         1 <0>        -0.1429
     35 H1         -0.9598    1.9046    0.0260 H         1 <0>         0.1168
     36 H2          1.1513    3.1692    0.0077 H         1 <0>         0.1193
     37 H3          3.3034    1.9757   -0.0192 H         1 <0>         0.1199
     38 H4          1.2204   -1.7597   -0.0193 H         1 <0>         0.1208
     39 H5         -0.9261   -0.5561    0.0079 H         1 <0>         0.1196
     40 H6          4.7383    1.0438   -0.5747 H         1 <0>         0.0794
     41 H7          5.1805    0.3113    0.9877 H         1 <0>         0.0608
     42 H8          5.6636   -0.9301   -1.7653 H         1 <0>         0.0897
     43 H9          6.9061   -0.1873   -0.7237 H         1 <0>         0.0900
     44 H10         8.1846   -2.1260   -0.3155 H         1 <0>         0.1302
     45 H11         5.9925   -6.5558    2.1006 H         1 <0>         0.1842
     46 H12         9.5840   -3.2695   -0.7175 H         1 <0>         0.1399
     47 H13        11.9508   -2.6115   -0.8654 H         1 <0>         0.1461
     48 H14        12.6943   -4.4096    2.9345 H         1 <0>         0.1455
     49 H15        10.3264   -5.0612    3.0933 H         1 <0>         0.1445
     50 H16         4.6791   -4.5025   -0.3451 H         1 <0>         0.0762
     51 H17         4.1448   -4.5271    1.3555 H         1 <0>         0.0831
     52 H18         2.7486   -2.4922    0.4585 H         1 <0>         0.0830
     53 H19         3.6533   -2.4719   -1.0740 H         1 <0>         0.0617
     54 H20         4.7617   -1.0461    2.1495 H         1 <0>         0.0810
     55 H21         3.9426   -2.5557    2.6169 H         1 <0>         0.0797
     56 H22         5.2071   -4.4361    3.4914 H         1 <0>         0.1273
     57 H23         7.2300   -5.1648    4.6905 H         1 <0>         0.1287
     58 H24         9.1879   -1.5357    3.5861 H         1 <0>         0.1254
     59 H25         7.1666   -0.8147    2.3795 H         1 <0>         0.1221
@<TRIPOS>BOND
     1    1    6 ar
     2    1    2 ar
     3    1   35 1
     4    2    3 ar
     5    2   36 1
     6    3    4 ar
     7    3   37 1
     8    4    5 ar
     9    4    7 1
    10    5    6 ar
    11    5   38 1
    12    6   39 1
    13    7   26 1
    14    7    8 1
    15    8    9 1
    16    8   40 1
    17    8   41 1
    18    9   10 1
    19    9   42 1
    20    9   43 1
    21   10   25 1
    22   10   11 2
    23   11   12 1
    24   11   44 1
    25   12   16 1
    26   12   13 2
    27   13   14 1
    28   13   24 1
    29   14   15 2
    30   14   45 1
    31   15   16 1
    32   16   17 1
    33   17   22 ar
    34   17   18 ar
    35   18   19 ar
    36   18   46 1
    37   19   20 ar
    38   19   47 1
    39   20   21 ar
    40   20   23 1
    41   21   22 ar
    42   21   48 1
    43   22   49 1
    44   24   25 1
    45   24   50 1
    46   24   51 1
    47   25   26 1
    48   25   27 1
    49   26   52 1
    50   26   53 1
    51   27   28 1
    52   27   54 1
    53   27   55 1
    54   28   33 ar
    55   28   29 ar
    56   29   30 ar
    57   29   56 1
    58   30   31 ar
    59   30   57 1
    60   31   32 ar
    61   31   34 1
    62   32   33 ar
    63   32   58 1
    64   33   59 1
@<TRIPOS>MOLECULE
CHEMBL404192__1
   59    64     0     0     0
SMALL
USER_CHARGES

@<TRIPOS>ATOM
      1 C1         -0.0167    1.3786    0.0096 C.ar      1 <0>        -0.1789
      2 C2          1.1695    2.0894    0.0021 C.ar      1 <0>        -0.0724
      3 C3          2.3774    1.4200   -0.0130 C.ar      1 <0>        -0.1978
      4 C4          2.3998    0.0311   -0.0206 C.ar      1 <0>         0.2169
      5 C5          1.2064   -0.6798   -0.0130 C.ar      1 <0>        -0.1976
      6 C6          0.0021   -0.0041    0.0020 C.ar      1 <0>        -0.0722
      7 N1          3.6196   -0.6492   -0.0363 N.pl3     1 <0>        -0.6263
      8 C7          4.8772    0.1050   -0.0387 C.3       1 <0>         0.1255
      9 C8          5.9703   -0.7414    0.6260 C.3       1 <0>        -0.0986
     10 C9          6.1056   -2.0308   -0.1554 C.2       1 <0>        -0.0659
     11 C10         7.3079   -2.5931   -0.2759 C.2       1 <0>        -0.1067
     12 C11         7.3902   -3.8690   -1.0049 C.2       1 <0>         0.1272
     13 C12         6.2419   -4.6074   -1.2720 C.2       1 <0>        -0.2239
     14 C13         6.6228   -5.7417   -1.9608 C.2       1 <0>         0.0683
     15 N2          7.9296   -5.7238   -2.1053 N.2       1 <0>        -0.2843
     16 N3          8.4376   -4.5606   -1.5016 N.pl3     1 <0>        -0.2962
     17 C14         9.7861   -4.1870   -1.4283 C.ar      1 <0>         0.1471
     18 C15        10.1409   -2.8463   -1.4976 C.ar      1 <0>        -0.1029
     19 C16        11.4705   -2.4802   -1.4252 C.ar      1 <0>        -0.1339
     20 C17        12.4498   -3.4491   -1.2836 C.ar      1 <0>         0.1002
     21 C18        12.0980   -4.7868   -1.2144 C.ar      1 <0>        -0.1336
     22 C19        10.7691   -5.1566   -1.2807 C.ar      1 <0>        -0.0803
     23 F1         13.7500   -3.0890   -1.2135 F         1 <0>        -0.1334
     24 C20         4.8851   -4.1345   -0.8209 C.3       1 <0>        -0.0261
     25 C21         4.8769   -2.6042   -0.8113 C.3       1 <0>        -0.0230
     26 C22         3.6390   -2.1146   -0.0443 C.3       1 <0>         0.1358
     27 C23         4.7899   -2.0926   -2.2506 C.3       1 <0>        -0.0632
     28 C24         6.0172   -2.5233   -3.0118 C.ar      1 <0>        -0.0846
     29 C25         7.1377   -1.7137   -3.0307 C.ar      1 <0>        -0.0879
     30 C26         8.2639   -2.1078   -3.7279 C.ar      1 <0>        -0.1629
     31 C27         8.2698   -3.3140   -4.4078 C.ar      1 <0>         0.1027
     32 C28         7.1470   -4.1239   -4.3882 C.ar      1 <0>        -0.1466
     33 C29         6.0238   -3.7302   -3.6859 C.ar      1 <0>        -0.0644
     34 F2          9.3700   -3.7000   -5.0901 F         1 <0>        -0.1418
     35 H1         -0.9598    1.9046    0.0260 H         1 <0>         0.1168
     36 H2          1.1513    3.1692    0.0077 H         1 <0>         0.1192
     37 H3          3.3034    1.9757   -0.0192 H         1 <0>         0.1199
     38 H4          1.2204   -1.7597   -0.0193 H         1 <0>         0.1208
     39 H5         -0.9261   -0.5561    0.0079 H         1 <0>         0.1196
     40 H6          5.1649    0.3307   -1.0655 H         1 <0>         0.0612
     41 H7          4.7466    1.0335    0.5171 H         1 <0>         0.0790
     42 H8          6.9162   -0.2000    0.6097 H         1 <0>         0.0901
     43 H9          5.6896   -0.9626    1.6558 H         1 <0>         0.0897
     44 H10         8.1882   -2.1300    0.1449 H         1 <0>         0.1294
     45 H11         5.9590   -6.5142   -2.3201 H         1 <0>         0.1842
     46 H12         9.3775   -2.0904   -1.6083 H         1 <0>         0.1439
     47 H13        11.7468   -1.4375   -1.4794 H         1 <0>         0.1457
     48 H14        12.8632   -5.5410   -1.1044 H         1 <0>         0.1460
     49 H15        10.4949   -6.1996   -1.2222 H         1 <0>         0.1438
     50 H16         4.1231   -4.5000   -1.5093 H         1 <0>         0.0832
     51 H17         4.6831   -4.5075    0.1832 H         1 <0>         0.0761
     52 H18         3.6737   -2.4829    0.9810 H         1 <0>         0.0623
     53 H19         2.7388   -2.4870   -0.5334 H         1 <0>         0.0829
     54 H20         3.9020   -2.5049   -2.7298 H         1 <0>         0.0797
     55 H21         4.7283   -1.0044   -2.2464 H         1 <0>         0.0815
     56 H22         7.1328   -0.7727   -2.5006 H         1 <0>         0.1236
     57 H23         9.1390   -1.4750   -3.7428 H         1 <0>         0.1273
     58 H24         7.1503   -5.0648   -4.9184 H         1 <0>         0.1285
     59 H25         5.1495   -4.3639   -3.6667 H         1 <0>         0.1275
@<TRIPOS>BOND
     1    1    6 ar
     2    1    2 ar
     3    1   35 1
     4    2    3 ar
     5    2   36 1
     6    3    4 ar
     7    3   37 1
     8    4    5 ar
     9    4    7 1
    10    5    6 ar
    11    5   38 1
    12    6   39 1
    13    7   26 1
    14    7    8 1
    15    8    9 1
    16    8   40 1
    17    8   41 1
    18    9   10 1
    19    9   42 1
    20    9   43 1
    21   10   25 1
    22   10   11 2
    23   11   12 1
    24   11   44 1
    25   12   16 1
    26   12   13 2
    27   13   14 1
    28   13   24 1
    29   14   15 2
    30   14   45 1
    31   15   16 1
    32   16   17 1
    33   17   22 ar
    34   17   18 ar
    35   18   19 ar
    36   18   46 1
    37   19   20 ar
    38   19   47 1
    39   20   21 ar
    40   20   23 1
    41   21   22 ar
    42   21   48 1
    43   22   49 1
    44   24   25 1
    45   24   50 1
    46   24   51 1
    47   25   26 1
    48   25   27 1
    49   26   52 1
    50   26   53 1
    51   27   28 1
    52   27   54 1
    53   27   55 1
    54   28   33 ar
    55   28   29 ar
    56   29   30 ar
    57   29   56 1
    58   30   31 ar
    59   30   57 1
    60   31   32 ar
    61   31   34 1
    62   32   33 ar
    63   32   58 1
    64   33   59 1
@<TRIPOS>MOLECULE
CHEMBL357651
   60    64     0     0     0
SMALL
NO_CHARGES

@<TRIPOS>ATOM
      1 C1         -0.8278    1.3022   -0.3042 C.3       1 <0>        -0.1476
      2 C2         -0.8808   -0.2269   -0.3095 C.3       1 <0>        -0.0514
      3 C3         -2.1231   -0.7003    0.4210 C.3       1 <0>        -0.1321
      4 C4         -2.1008   -0.0607    1.8182 C.3       1 <0>         0.0903
      5 H1         -2.9656   -0.4092    2.3828 H         1 <0>         0.0711
      6 C5         -0.8297   -0.4206    2.5816 C.3       1 <0>         0.1611
      7 C6          0.4319   -0.0669    1.7785 C.3       1 <0>        -0.0988
      8 C7          0.3456   -0.7982    0.4509 C.3       1 <0>        -0.0808
      9 C8          1.4829   -0.5153   -0.5362 C.3       1 <0>        -0.1114
     10 C9          0.8549   -0.8771   -1.9099 C.3       1 <0>         0.0754
     11 H2          1.2347   -0.2509   -2.7172 H         1 <0>         0.1011
     12 C10        -0.6864   -0.7452   -1.7293 C.3       1 <0>         0.1183
     13 O1         -1.1818   -2.0934   -1.8380 O.3       1 <0>        -0.3454
     14 C11        -0.1893   -2.7839   -2.6271 C.3       1 <0>         0.2441
     15 O2          1.0863   -2.2807   -2.1477 O.3       1 <0>        -0.3598
     16 C12        -0.2865   -4.2944   -2.4040 C.3       1 <0>        -0.1380
     17 C13        -0.3604   -2.4502   -4.1104 C.3       1 <0>        -0.1881
     18 S1         -1.4207    0.3673   -2.9595 S.3       1 <0>        -0.2346
     19 C14        -3.2006    0.2849   -2.6189 C.3       1 <0>        -0.1190
     20 C15         1.6745   -0.5263    2.5435 C.3       1 <0>        -0.1168
     21 C16         1.7791    0.2398    3.8661 C.3       1 <0>        -0.0942
     22 C17         0.4809    0.0450    4.6270 C.2       1 <0>        -0.0312
     23 C18         0.5294   -0.3723    5.8843 C.2       1 <0>        -0.2206
     24 C19        -0.7087   -0.5926    6.6477 C.2       1 <0>         0.4075
     25 O3         -0.6679   -0.9385    7.8136 O.2       1 <0>        -0.4559
     26 C20        -1.9987   -0.3854    5.9682 C.2       1 <0>        -0.2090
     27 C21        -2.0234    0.0371    4.7140 C.2       1 <0>        -0.0709
     28 C22        -0.8044    0.3387    3.9113 C.3       1 <0>        -0.0296
     29 C23        -0.8321    1.8353    3.5942 C.3       1 <0>        -0.1344
     30 F1         -0.8200   -1.7960    2.8370 F         1 <0>        -0.1906
     31 O4         -2.1748    1.3599    1.6819 O.3       1 <0>        -0.5387
     32 H3         -0.0446    1.6409   -0.9825 H         1 <0>         0.0545
     33 H4         -1.7885    1.7002   -0.6308 H         1 <0>         0.0598
     34 H5         -0.6124    1.6548    0.7044 H         1 <0>         0.1015
     35 H6         -3.0149   -0.3820   -0.1187 H         1 <0>         0.0754
     36 H7         -2.1099   -1.7866    0.5099 H         1 <0>         0.0866
     37 H8          0.4677    1.0085    1.6044 H         1 <0>         0.1164
     38 H9          0.2276   -1.8696    0.6135 H         1 <0>         0.0903
     39 H10         1.7653    0.5371   -0.5070 H         1 <0>         0.0890
     40 H11         2.3425   -1.1517   -0.3261 H         1 <0>         0.0894
     41 H12        -1.2773   -4.6418   -2.6968 H         1 <0>         0.0794
     42 H13         0.4684   -4.7999   -3.0061 H         1 <0>         0.0812
     43 H14        -0.1200   -4.5175   -1.3502 H         1 <0>         0.0725
     44 H15        -0.1419   -1.3948   -4.2730 H         1 <0>         0.0772
     45 H16         0.3248   -3.0583   -4.7010 H         1 <0>         0.0744
     46 H17        -1.3861   -2.6599   -4.4140 H         1 <0>         0.0766
     47 H18        -3.5531   -0.7349   -2.7731 H         1 <0>         0.0807
     48 H19        -3.3871    0.5816   -1.5868 H         1 <0>         0.0794
     49 H20        -3.7309    0.9584   -3.2921 H         1 <0>         0.1026
     50 H21         1.6002   -1.5944    2.7480 H         1 <0>         0.0750
     51 H22         2.5627   -0.3339    1.9417 H         1 <0>         0.0817
     52 H23         2.6114   -0.1496    4.4523 H         1 <0>         0.0847
     53 H24         1.9331    1.3002    3.6661 H         1 <0>         0.0885
     54 H25         1.4861   -0.5517    6.3524 H         1 <0>         0.1389
     55 H26        -2.9232   -0.5776    6.4925 H         1 <0>         0.1405
     56 H27        -2.9862    0.1713    4.2434 H         1 <0>         0.1270
     57 H28        -1.8502    2.1353    3.3461 H         1 <0>         0.0991
     58 H29        -0.4892    2.3972    4.4630 H         1 <0>         0.0548
     59 H30        -0.1766    2.0395    2.7476 H         1 <0>         0.0755
     60 H31        -2.9735    1.6710    1.2341 H         1 <0>         0.3769
@<TRIPOS>BOND
     1    1    2 1
     2    1   32 1
     3    1   33 1
     4    1   34 1
     5    2    8 1
     6    2   12 1
     7    2    3 1
     8    3    4 1
     9    3   35 1
    10    3   36 1
    11    4    5 1
    12    4    6 1
    13    4   31 1
    14    6   28 1
    15    6    7 1
    16    6   30 1
    17    7    8 1
    18    7   20 1
    19    7   37 1
    20    8    9 1
    21    8   38 1
    22    9   10 1
    23    9   39 1
    24    9   40 1
    25   10   11 1
    26   10   15 1
    27   10   12 1
    28   12   13 1
    29   12   18 1
    30   13   14 1
    31   14   15 1
    32   14   16 1
    33   14   17 1
    34   16   41 1
    35   16   42 1
    36   16   43 1
    37   17   44 1
    38   17   45 1
    39   17   46 1
    40   18   19 1
    41   19   47 1
    42   19   48 1
    43   19   49 1
    44   20   21 1
    45   20   50 1
    46   20   51 1
    47   21   22 1
    48   21   52 1
    49   21   53 1
    50   22   28 1
    51   22   23 2
    52   23   24 1
    53   23   54 1
    54   24   25 2
    55   24   26 1
    56   26   27 2
    57   26   55 1
    58   27   28 1
    59   27   56 1
    60   28   29 1
    61   29   57 1
    62   29   58 1
    63   29   59 1
    64   31   60 1
@<TRIPOS>MOLECULE
CHEMBL357651__1
   60    64     0     0     0
SMALL
USER_CHARGES

@<TRIPOS>ATOM
      1 C1         -1.8459    1.6300   -0.2302 C.3       1 <0>        -0.1507
      2 C2         -1.6091    0.1187   -0.2591 C.3       1 <0>        -0.0293
      3 C3         -2.8163   -0.6520    0.2820 C.3       1 <0>        -0.1299
      4 C4         -2.9351   -0.4671    1.7918 C.3       1 <0>         0.0885
      5 H1         -3.8240   -0.9834    2.1543 H         1 <0>         0.0722
      6 C5         -1.6889   -1.0574    2.4617 C.3       1 <0>         0.1616
      7 C6         -0.4638   -0.2749    1.9906 C.3       1 <0>        -0.0899
      8 C7         -0.3337   -0.2717    0.5054 C.3       1 <0>        -0.0785
      9 C8         -0.0008   -1.6721   -0.0409 C.3       1 <0>        -0.1390
     10 C9         -0.3190   -1.5587   -1.5481 C.3       1 <0>         0.0542
     11 H2          0.5808   -1.3950   -2.1410 H         1 <0>         0.0924
     12 C10        -1.3296   -0.3935   -1.6967 C.3       1 <0>         0.1118
     13 O1         -2.5336   -1.0133   -2.1945 O.3       1 <0>        -0.3237
     14 C11        -2.0868   -2.2313   -2.8273 C.3       1 <0>         0.2389
     15 O2         -1.0277   -2.7430   -1.9646 O.3       1 <0>        -0.3568
     16 C12        -3.2360   -3.2371   -2.9196 C.3       1 <0>        -0.1379
     17 C13        -1.5233   -1.9341   -4.2184 C.3       1 <0>        -0.1906
     18 S1         -0.7143    0.9194   -2.7868 S.3       1 <0>        -0.2261
     19 C14         0.9125    1.3338   -2.0997 C.3       1 <0>        -0.1303
     20 C15         0.8023   -0.8475    2.6336 C.3       1 <0>        -0.1184
     21 C16         0.7346   -0.6749    4.1540 C.3       1 <0>        -0.0934
     22 C17        -0.5500   -1.3174    4.6428 C.2       1 <0>        -0.0323
     23 C18        -0.4929   -2.2025    5.6279 C.2       1 <0>        -0.2194
     24 C19        -1.7160   -2.8609    6.1128 C.2       1 <0>         0.4074
     25 O3         -1.6738   -3.6452    7.0422 O.2       1 <0>        -0.4554
     26 C20        -2.9927   -2.5488    5.4482 C.2       1 <0>        -0.2076
     27 C21        -3.0267   -1.6564    4.4710 C.2       1 <0>        -0.0719
     28 C22        -1.8330   -0.9116    3.9802 C.3       1 <0>        -0.0306
     29 C23        -2.0689    0.5689    4.2856 C.3       1 <0>        -0.1338
     30 F1         -1.5677   -2.4102    2.1260 F         1 <0>        -0.1830
     31 O4         -3.0321    0.9255    2.0976 O.3       1 <0>        -0.5423
     32 H3         -1.0591    2.1319   -0.7933 H         1 <0>         0.0672
     33 H4         -2.8136    1.8548   -0.6787 H         1 <0>         0.0612
     34 H5         -1.8338    1.9800    0.8020 H         1 <0>         0.0849
     35 H6         -3.7231   -0.2846   -0.1985 H         1 <0>         0.0810
     36 H7         -2.6973   -1.7119    0.0571 H         1 <0>         0.0848
     37 H8         -0.5642    0.7596    2.3190 H         1 <0>         0.1078
     38 H9          0.4718    0.4066    0.2240 H         1 <0>         0.0808
     39 H10         1.0535   -1.9029    0.1122 H         1 <0>         0.0801
     40 H11        -0.6317   -2.4269    0.4286 H         1 <0>         0.1100
     41 H12        -4.0475   -2.8087   -3.5077 H         1 <0>         0.0811
     42 H13        -2.8823   -4.1499   -3.3991 H         1 <0>         0.0821
     43 H14        -3.5968   -3.4695   -1.9176 H         1 <0>         0.0726
     44 H15        -0.6179   -1.3348   -4.1232 H         1 <0>         0.0768
     45 H16        -1.2874   -2.8712   -4.7227 H         1 <0>         0.0761
     46 H17        -2.2633   -1.3846   -4.8003 H         1 <0>         0.0783
     47 H18         0.7878    1.7722   -1.1096 H         1 <0>         0.0852
     48 H19         1.5158    0.4292   -2.0232 H         1 <0>         0.0791
     49 H20         1.4116    2.0491   -2.7535 H         1 <0>         0.1095
     50 H21         0.8838   -1.9074    2.3924 H         1 <0>         0.0757
     51 H22         1.6750   -0.3208    2.2475 H         1 <0>         0.0792
     52 H23         1.5910   -1.1636    4.6187 H         1 <0>         0.0852
     53 H24         0.7344    0.3859    4.4046 H         1 <0>         0.0886
     54 H25         0.4590   -2.4426    6.0779 H         1 <0>         0.1389
     55 H26        -3.8995   -3.0474    5.7572 H         1 <0>         0.1412
     56 H27        -3.9778   -1.4564    4.0001 H         1 <0>         0.1274
     57 H28        -3.0842    0.8419    3.9981 H         1 <0>         0.0957
     58 H29        -1.9333    0.7459    5.3525 H         1 <0>         0.0551
     59 H30        -1.3572    1.1737    3.7236 H         1 <0>         0.0774
     60 H31        -3.7949    1.3640    1.6965 H         1 <0>         0.3811
@<TRIPOS>BOND
     1    1    2 1
     2    1   32 1
     3    1   33 1
     4    1   34 1
     5    2    8 1
     6    2   12 1
     7    2    3 1
     8    3    4 1
     9    3   35 1
    10    3   36 1
    11    4    5 1
    12    4    6 1
    13    4   31 1
    14    6   28 1
    15    6    7 1
    16    6   30 1
    17    7    8 1
    18    7   20 1
    19    7   37 1
    20    8    9 1
    21    8   38 1
    22    9   10 1
    23    9   39 1
    24    9   40 1
    25   10   11 1
    26   10   15 1
    27   10   12 1
    28   12   13 1
    29   12   18 1
    30   13   14 1
    31   14   15 1
    32   14   16 1
    33   14   17 1
    34   16   41 1
    35   16   42 1
    36   16   43 1
    37   17   44 1
    38   17   45 1
    39   17   46 1
    40   18   19 1
    41   19   47 1
    42   19   48 1
    43   19   49 1
    44   20   21 1
    45   20   50 1
    46   20   51 1
    47   21   22 1
    48   21   52 1
    49   21   53 1
    50   22   28 1
    51   22   23 2
    52   23   24 1
    53   23   54 1
    54   24   25 2
    55   24   26 1
    56   26   27 2
    57   26   55 1
    58   27   28 1
    59   27   56 1
    60   28   29 1
    61   29   57 1
    62   29   58 1
    63   29   59 1
    64   31   60 1
@<TRIPOS>MOLECULE
CHEMBL357651__2
   60    64     0     0     0
SMALL
USER_CHARGES

@<TRIPOS>ATOM
      1 C1          0.2091    1.0318    0.1597 C.3       1 <0>        -0.1569
      2 C2          0.1957   -0.4709   -0.1200 C.3       1 <0>        -0.0350
      3 C3         -1.2043   -1.0303   -0.0600 C.3       1 <0>        -0.1393
      4 C4         -1.7199   -1.0166    1.3934 C.3       1 <0>         0.1068
      5 H1         -2.6958   -1.5302    1.3691 H         1 <0>         0.0643
      6 C5         -0.7951   -1.7742    2.3204 C.3       1 <0>         0.1680
      7 C6          0.6548   -1.2655    2.2486 C.3       1 <0>        -0.0772
      8 C7          1.1111   -1.2695    0.8286 C.3       1 <0>        -0.0804
      9 C8          2.4894   -0.6994    0.4777 C.3       1 <0>        -0.1121
     10 C9          2.4384   -0.6910   -1.0804 C.3       1 <0>         0.0786
     11 H2          2.9957    0.1414   -1.5053 H         1 <0>         0.1046
     12 C10         0.9287   -0.6669   -1.4610 C.3       1 <0>         0.1087
     13 O1          0.6578   -1.9684   -1.9942 O.3       1 <0>        -0.3449
     14 C11         1.9273   -2.4653   -2.4642 C.3       1 <0>         0.2490
     15 O2          2.9097   -1.9733   -1.5343 O.3       1 <0>        -0.3619
     16 C12         2.2184   -1.9517   -3.8764 C.3       1 <0>        -0.1858
     17 C13         1.9226   -3.9989   -2.4618 C.3       1 <0>        -0.1410
     18 S1          0.5328    0.6659   -2.6224 S.3       1 <0>        -0.2355
     19 C14        -1.2402    0.4563   -2.9432 C.3       1 <0>        -0.1200
     20 C15         0.7624    0.0614    2.9849 C.3       1 <0>        -0.1203
     21 C16         0.6704   -0.2316    4.4852 C.3       1 <0>        -0.0941
     22 C17        -0.3437   -1.3071    4.7733 C.2       1 <0>        -0.0192
     23 C18        -0.4500   -1.6795    6.0639 C.2       1 <0>        -0.2377
     24 C19        -1.3683   -2.7803    6.4214 C.2       1 <0>         0.4068
     25 O3         -1.8038   -2.9179    7.5570 O.2       1 <0>        -0.4555
     26 C20        -1.7062   -3.7421    5.3457 C.2       1 <0>        -0.2200
     27 C21        -1.6064   -3.3453    4.0723 C.2       1 <0>        -0.0767
     28 C22        -1.2348   -1.9225    3.7509 C.3       1 <0>        -0.0252
     29 C23        -2.5628   -1.1843    3.9189 C.3       1 <0>        -0.1523
     30 F1         -0.7378   -3.0969    1.8062 F         1 <0>        -0.2070
     31 O4         -1.9404    0.3317    1.7876 O.3       1 <0>        -0.5437
     32 H3          1.2241    1.4131    0.0483 H         1 <0>         0.0591
     33 H4         -0.4489    1.5386   -0.5461 H         1 <0>         0.0670
     34 H5         -0.1384    1.2152    1.1764 H         1 <0>         0.0922
     35 H6         -1.8749   -0.4267   -0.6798 H         1 <0>         0.0759
     36 H7         -1.2143   -2.0589   -0.4321 H         1 <0>         0.0874
     37 H8          1.2748   -2.0037    2.8040 H         1 <0>         0.0832
     38 H9          1.1107   -2.3293    0.4799 H         1 <0>         0.0853
     39 H10         2.6395    0.2955    0.8758 H         1 <0>         0.0916
     40 H11         3.2772   -1.3743    0.8218 H         1 <0>         0.0870
     41 H12         2.3426   -0.8691   -3.8509 H         1 <0>         0.0747
     42 H13         3.1324   -2.4135   -4.2498 H         1 <0>         0.0748
     43 H14         1.3875   -2.2066   -4.5342 H         1 <0>         0.0758
     44 H15         1.1305   -4.3608   -3.1173 H         1 <0>         0.0785
     45 H16         2.8851   -4.3658   -2.8182 H         1 <0>         0.0803
     46 H17         1.7487   -4.3601   -1.4482 H         1 <0>         0.0714
     47 H18        -1.4331   -0.5680   -3.2623 H         1 <0>         0.0824
     48 H19        -1.8014    0.6648   -2.0324 H         1 <0>         0.0797
     49 H20        -1.5515    1.1459   -3.7278 H         1 <0>         0.1023
     50 H21         1.7266    0.5358    2.7725 H         1 <0>         0.0777
     51 H22        -0.0404    0.7449    2.7178 H         1 <0>         0.1021
     52 H23         1.6455   -0.5609    4.8464 H         1 <0>         0.0867
     53 H24         0.3809    0.6775    5.0117 H         1 <0>         0.0893
     54 H25         0.1359   -1.1677    6.8316 H         1 <0>         0.1460
     55 H26        -2.0325   -4.7563    5.5901 H         1 <0>         0.1463
     56 H27        -1.8001   -4.0502    3.2630 H         1 <0>         0.1491
     57 H28        -3.3067   -1.6181    3.2507 H         1 <0>         0.0647
     58 H29        -2.9025   -1.2778    4.9504 H         1 <0>         0.0595
     59 H30        -2.4263   -0.1307    3.6755 H         1 <0>         0.0996
     60 H31        -2.5887    0.7995    1.2436 H         1 <0>         0.3855
@<TRIPOS>BOND
     1    1    2 1
     2    1   32 1
     3    1   33 1
     4    1   34 1
     5    2    8 1
     6    2   12 1
     7    2    3 1
     8    3    4 1
     9    3   35 1
    10    3   36 1
    11    4    5 1
    12    4    6 1
    13    4   31 1
    14    6   28 1
    15    6    7 1
    16    6   30 1
    17    7    8 1
    18    7   20 1
    19    7   37 1
    20    8    9 1
    21    8   38 1
    22    9   10 1
    23    9   39 1
    24    9   40 1
    25   10   11 1
    26   10   15 1
    27   10   12 1
    28   12   13 1
    29   12   18 1
    30   13   14 1
    31   14   15 1
    32   14   16 1
    33   14   17 1
    34   16   41 1
    35   16   42 1
    36   16   43 1
    37   17   44 1
    38   17   45 1
    39   17   46 1
    40   18   19 1
    41   19   47 1
    42   19   48 1
    43   19   49 1
    44   20   21 1
    45   20   50 1
    46   20   51 1
    47   21   22 1
    48   21   52 1
    49   21   53 1
    50   22   28 1
    51   22   23 2
    52   23   24 1
    53   23   54 1
    54   24   25 2
    55   24   26 1
    56   26   27 2
    57   26   55 1
    58   27   28 1
    59   27   56 1
    60   28   29 1
    61   29   57 1
    62   29   58 1
    63   29   59 1
    64   31   60 1
@<TRIPOS>MOLECULE
CHEMBL357651__3
   60    64     0     0     0
SMALL
USER_CHARGES

@<TRIPOS>ATOM
      1 C1         -0.3939    0.7953   -0.6982 C.3       1 <0>        -0.1593
      2 C2         -0.2662   -0.7014   -0.4076 C.3       1 <0>        -0.0287
      3 C3         -1.6320   -1.3453   -0.1558 C.3       1 <0>        -0.1300
      4 C4         -2.1981   -0.8971    1.1887 C.3       1 <0>         0.0814
      5 H1         -3.1883   -1.3301    1.3311 H         1 <0>         0.0854
      6 C5         -1.2611   -1.3790    2.3024 C.3       1 <0>         0.1643
      7 C6          0.0987   -0.7167    2.1163 C.3       1 <0>        -0.0850
      8 C7          0.6836   -0.9724    0.7720 C.3       1 <0>        -0.0771
      9 C8          1.0700   -2.4519    0.5891 C.3       1 <0>        -0.1435
     10 C9          1.2359   -2.5988   -0.9393 C.3       1 <0>         0.0549
     11 H2          2.2831   -2.5567   -1.2390 H         1 <0>         0.0917
     12 C10         0.4040   -1.4609   -1.5826 C.3       1 <0>         0.1119
     13 O1         -0.6294   -2.1376   -2.3279 O.3       1 <0>        -0.3238
     14 C11        -0.0977   -3.4552   -2.5827 C.3       1 <0>         0.2388
     15 O2          0.6063   -3.8255   -1.3600 O.3       1 <0>        -0.3570
     16 C12         0.8851   -3.4164   -3.7546 C.3       1 <0>        -0.1904
     17 C13        -1.2316   -4.4419   -2.8683 C.3       1 <0>        -0.1377
     18 S1          1.4148   -0.3682   -2.6194 S.3       1 <0>        -0.2275
     19 C14         2.7834    0.1233   -1.5350 C.3       1 <0>        -0.1297
     20 C15        -0.0670    0.7923    2.3396 C.3       1 <0>        -0.1549
     21 C16        -0.2507    1.0177    3.8418 C.3       1 <0>        -0.0850
     22 C17        -1.2971    0.0905    4.3867 C.2       1 <0>        -0.0261
     23 C18        -1.7652    0.3177    5.6362 C.2       1 <0>        -0.2369
     24 C19        -2.7591   -0.6790    6.1206 C.2       1 <0>         0.4140
     25 O3         -3.7556   -0.3618    6.7428 O.2       1 <0>        -0.4475
     26 C20        -2.4400   -2.0942    5.7844 C.2       1 <0>        -0.2170
     27 C21        -1.9679   -2.2911    4.5340 C.2       1 <0>        -0.0886
     28 C22        -1.8558   -1.0795    3.6520 C.3       1 <0>        -0.0295
     29 C23        -3.3086   -0.6974    3.3617 C.3       1 <0>        -0.1737
     30 F1         -1.0916   -2.7624    2.1811 F         1 <0>        -0.1883
     31 O4         -2.2898    0.5287    1.2188 O.3       1 <0>        -0.5303
     32 H3          0.5883    1.2047   -0.9341 H         1 <0>         0.0631
     33 H4         -1.0631    0.9451   -1.5455 H         1 <0>         0.0611
     34 H5         -0.7981    1.3023    0.1780 H         1 <0>         0.0946
     35 H6         -2.3188   -1.0532   -0.9502 H         1 <0>         0.0811
     36 H7         -1.5235   -2.4299   -0.1563 H         1 <0>         0.0863
     37 H8          0.7786   -1.0950    2.8796 H         1 <0>         0.0827
     38 H9          1.5806   -0.3642    0.6554 H         1 <0>         0.0807
     39 H10         2.0085   -2.6689    1.0992 H         1 <0>         0.0783
     40 H11         0.2753   -3.1033    0.9528 H         1 <0>         0.1146
     41 H12         1.7620   -2.8329   -3.4742 H         1 <0>         0.0765
     42 H13         1.1899   -4.4320   -4.0070 H         1 <0>         0.0759
     43 H14         0.4035   -2.9565   -4.6176 H         1 <0>         0.0782
     44 H15        -1.7908   -4.1096   -3.7429 H         1 <0>         0.0810
     45 H16        -0.8137   -5.4305   -3.0583 H         1 <0>         0.0818
     46 H17        -1.8981   -4.4886   -2.0070 H         1 <0>         0.0726
     47 H18         2.3989    0.7361   -0.7197 H         1 <0>         0.0850
     48 H19         3.2609   -0.7672   -1.1263 H         1 <0>         0.0787
     49 H20         3.5127    0.6963   -2.1075 H         1 <0>         0.1090
     50 H21         0.8227    1.3177    1.9926 H         1 <0>         0.0689
     51 H22        -0.9439    1.1520    1.8014 H         1 <0>         0.1466
     52 H23         0.6948    0.8340    4.3521 H         1 <0>         0.0816
     53 H24        -0.5568    2.0492    4.0166 H         1 <0>         0.0848
     54 H25        -1.4425    1.1565    6.2352 H         1 <0>         0.1521
     55 H26        -2.5755   -2.9026    6.4877 H         1 <0>         0.1525
     56 H27        -1.6840   -3.2729    4.1848 H         1 <0>         0.1487
     57 H28        -3.7858   -1.4922    2.7883 H         1 <0>         0.0682
     58 H29        -3.8422   -0.5570    4.3018 H         1 <0>         0.0593
     59 H30        -3.3330    0.2292    2.7882 H         1 <0>         0.1039
     60 H31        -2.8599    0.9008    0.5321 H         1 <0>         0.3774
@<TRIPOS>BOND
     1    1    2 1
     2    1   32 1
     3    1   33 1
     4    1   34 1
     5    2    8 1
     6    2   12 1
     7    2    3 1
     8    3    4 1
     9    3   35 1
    10    3   36 1
    11    4    5 1
    12    4    6 1
    13    4   31 1
    14    6   28 1
    15    6    7 1
    16    6   30 1
    17    7    8 1
    18    7   20 1
    19    7   37 1
    20    8    9 1
    21    8   38 1
    22    9   10 1
    23    9   39 1
    24    9   40 1
    25   10   11 1
    26   10   15 1
    27   10   12 1
    28   12   13 1
    29   12   18 1
    30   13   14 1
    31   14   15 1
    32   14   16 1
    33   14   17 1
    34   16   41 1
    35   16   42 1
    36   16   43 1
    37   17   44 1
    38   17   45 1
    39   17   46 1
    40   18   19 1
    41   19   47 1
    42   19   48 1
    43   19   49 1
    44   20   21 1
    45   20   50 1
    46   20   51 1
    47   21   22 1
    48   21   52 1
    49   21   53 1
    50   22   28 1
    51   22   23 2
    52   23   24 1
    53   23   54 1
    54   24   25 2
    55   24   26 1
    56   26   27 2
    57   26   55 1
    58   27   28 1
    59   27   56 1
    60   28   29 1
    61   29   57 1
    62   29   58 1
    63   29   59 1
    64   31   60 1
@<TRIPOS>MOLECULE
CHEMBL268568
   39    41     0     0     0
SMALL
USER_CHARGES

@<TRIPOS>ATOM
      1 C1          1.1535   -0.2369    1.1301 C.3       1 <0>        -0.1579
      2 C2          0.2847    0.1411   -0.0712 C.3       1 <0>        -0.1255
      3 C3          1.0274   -0.1989   -1.3649 C.3       1 <0>        -0.0491
      4 C4          0.2051    0.2406   -2.5514 C.ar      1 <0>        -0.1276
      5 C5         -0.5863    1.3344   -2.4454 C.ar      1 <0>        -0.0039
      6 C6         -1.3636    1.7554   -3.5437 C.ar      1 <0>        -0.1811
      7 C7         -2.1890    2.8875   -3.4454 C.2       1 <0>         0.0531
      8 C8         -2.9325    3.2561   -4.5562 C.2       1 <0>        -0.2303
      9 C9         -2.8467    2.5137   -5.7175 C.2       1 <0>         0.4465
     10 O1         -3.5770    2.8886   -6.7866 O.3       1 <0>        -0.3656
     11 O2         -2.0630    1.4364   -5.8158 O.3       1 <0>        -0.1980
     12 C10        -1.3203    1.0365   -4.7633 C.ar      1 <0>         0.2294
     13 C11        -0.5134   -0.0745   -4.8662 C.ar      1 <0>        -0.2517
     14 C12         0.2624   -0.4876   -3.7635 C.ar      1 <0>         0.3593
     15 N1          1.0399   -1.5585   -3.8882 N.pl3     1 <0>        -0.6366
     16 C13         1.8874   -2.0396   -2.8013 C.3       1 <0>         0.0895
     17 C14         1.2418   -1.7142   -1.4519 C.3       1 <0>        -0.1092
     18 C15        -0.1054   -2.4307   -1.3406 C.3       1 <0>        -0.1576
     19 C16        -2.2649    3.6804   -2.1661 C.3       1 <0>         0.5059
     20 F1         -1.0003    4.1948   -1.8605 F         1 <0>        -0.1508
     21 F2         -3.1713    4.7343   -2.3238 F         1 <0>        -0.1500
     22 F3         -2.6936    2.8482   -1.1264 F         1 <0>        -0.1511
     23 H1          1.2719   -1.3199    1.1664 H         1 <0>         0.0607
     24 H2          2.1323    0.2325    1.0327 H         1 <0>         0.0606
     25 H3          0.6751    0.1071    2.0471 H         1 <0>         0.0649
     26 H4         -0.6513   -0.4161   -0.0324 H         1 <0>         0.0772
     27 H5          0.0726    1.2100   -0.0442 H         1 <0>         0.0699
     28 H6          1.9921    0.3084   -1.3770 H         1 <0>         0.1058
     29 H7         -0.6224    1.8854   -1.5172 H         1 <0>         0.1639
     30 H8         -3.5774    4.1214   -4.5132 H         1 <0>         0.2053
     31 H9         -0.4750   -0.6300   -5.7916 H         1 <0>         0.1691
     32 H10         1.0446   -2.0372   -4.7318 H         1 <0>         0.4235
     33 H11         2.0135   -3.1185   -2.8912 H         1 <0>         0.1111
     34 H12         2.8627   -1.5566   -2.8620 H         1 <0>         0.0969
     35 H13         1.8989   -2.0376   -0.6446 H         1 <0>         0.1155
     36 H14        -0.7559   -2.1098   -2.1542 H         1 <0>         0.0500
     37 H15         0.0498   -3.5078   -1.4027 H         1 <0>         0.0675
     38 H16        -0.5698   -2.1850   -0.3856 H         1 <0>         0.0753
     39 H17        -3.4628    2.3195   -7.5601 H         1 <0>         0.4454
@<TRIPOS>BOND
     1    1    2 1
     2    1   23 1
     3    1   24 1
     4    1   25 1
     5    2    3 1
     6    2   26 1
     7    2   27 1
     8    3   17 1
     9    3    4 1
    10    3   28 1
    11    4   14 ar
    12    4    5 ar
    13    5    6 ar
    14    5   29 1
    15    6   12 ar
    16    6    7 2
    17    7    8 1
    18    7   19 1
    19    8    9 2
    20    8   30 1
    21    9   10 1
    22    9   11 1
    23   10   39 1
    24   11   12 1
    25   12   13 ar
    26   13   14 ar
    27   13   31 1
    28   14   15 2
    29   15   16 1
    30   15   32 1
    31   16   17 1
    32   16   33 1
    33   16   34 1
    34   17   18 1
    35   17   35 1
    36   18   36 1
    37   18   37 1
    38   18   38 1
    39   19   20 1
    40   19   21 1
    41   19   22 1
@<TRIPOS>MOLECULE
CHEMBL268568__1
   39    41     0     0     0
SMALL
USER_CHARGES

@<TRIPOS>ATOM
      1 C1         -0.3182    1.7967    0.0828 C.3       1 <0>        -0.1621
      2 C2         -0.3458    0.2690    0.1615 C.3       1 <0>        -0.1213
      3 C3          0.4212   -0.3168   -1.0256 C.3       1 <0>        -0.0503
      4 C4         -0.3037    0.0102   -2.3081 C.ar      1 <0>        -0.1256
      5 C5         -0.0297    1.1699   -2.9515 C.ar      1 <0>         0.0009
      6 C6         -0.6956    1.4879   -4.1528 C.ar      1 <0>        -0.1820
      7 C7         -0.4190    2.6870   -4.8296 C.2       1 <0>         0.0533
      8 C8         -1.1025    2.9487   -6.0073 C.2       1 <0>        -0.2306
      9 C9         -2.0265    2.0388   -6.4819 C.2       1 <0>         0.4465
     10 O1         -2.6804    2.3113   -7.6287 O.3       1 <0>        -0.3656
     11 O2         -2.2931    0.8971   -5.8417 O.3       1 <0>        -0.1981
     12 C10        -1.6545    0.5960   -4.6924 C.ar      1 <0>         0.2294
     13 C11        -1.9301   -0.5814   -4.0339 C.ar      1 <0>        -0.2517
     14 C12        -1.2610   -0.8909   -2.8318 C.ar      1 <0>         0.3596
     15 N1         -1.5488   -2.0296   -2.2093 N.pl3     1 <0>        -0.6358
     16 C13        -0.9145   -2.4148   -0.9522 C.3       1 <0>         0.0878
     17 C14         0.5026   -1.8409   -0.8839 C.3       1 <0>        -0.1086
     18 C15         1.3455   -2.4182   -2.0229 C.3       1 <0>        -0.1554
     19 C16         0.5945    3.6633   -4.2904 C.3       1 <0>         0.5059
     20 F1          1.8434    3.0387   -4.2036 F         1 <0>        -0.1509
     21 F2          0.6828    4.7651   -5.1479 F         1 <0>        -0.1501
     22 F3          0.1983    4.0923   -3.0191 F         1 <0>        -0.1508
     23 H1          0.7148    2.1433    0.1110 H         1 <0>         0.0626
     24 H2         -0.7851    2.1211   -0.8472 H         1 <0>         0.0512
     25 H3         -0.8646    2.2141    0.9286 H         1 <0>         0.0665
     26 H4          0.1210   -0.0554    1.0915 H         1 <0>         0.0843
     27 H5         -1.3789   -0.0776    0.1334 H         1 <0>         0.0653
     28 H6          1.4270    0.1022   -1.0539 H         1 <0>         0.1080
     29 H7          0.7005    1.8530   -2.5432 H         1 <0>         0.1613
     30 H8         -0.9131    3.8620   -6.5518 H         1 <0>         0.2053
     31 H9         -2.6592   -1.2681   -4.4381 H         1 <0>         0.1690
     32 H10        -2.2036   -2.6261   -2.6048 H         1 <0>         0.4236
     33 H11        -1.5011   -2.0298   -0.1181 H         1 <0>         0.0983
     34 H12        -0.8681   -3.5019   -0.8886 H         1 <0>         0.1105
     35 H13         0.9547   -2.0956    0.0746 H         1 <0>         0.1145
     36 H14         2.3498   -1.9966   -1.9814 H         1 <0>         0.0715
     37 H15         1.4019   -3.5019   -1.9199 H         1 <0>         0.0686
     38 H16         0.8853   -2.1675   -2.9786 H         1 <0>         0.0500
     39 H17        -3.3097    1.6270   -7.8948 H         1 <0>         0.4454
@<TRIPOS>BOND
     1    1    2 1
     2    1   23 1
     3    1   24 1
     4    1   25 1
     5    2    3 1
     6    2   26 1
     7    2   27 1
     8    3   17 1
     9    3    4 1
    10    3   28 1
    11    4   14 ar
    12    4    5 ar
    13    5    6 ar
    14    5   29 1
    15    6   12 ar
    16    6    7 2
    17    7    8 1
    18    7   19 1
    19    8    9 2
    20    8   30 1
    21    9   10 1
    22    9   11 1
    23   10   39 1
    24   11   12 1
    25   12   13 ar
    26   13   14 ar
    27   13   31 1
    28   14   15 2
    29   15   16 1
    30   15   32 1
    31   16   17 1
    32   16   33 1
    33   16   34 1
    34   17   18 1
    35   17   35 1
    36   18   36 1
    37   18   37 1
    38   18   38 1
    39   19   20 1
    40   19   21 1
    41   19   22 1
@<TRIPOS>MOLECULE
CHEMBL268568__2
   39    41     0     0     0
SMALL
USER_CHARGES

@<TRIPOS>ATOM
      1 C1          0.6428   -0.8092    1.4272 C.3       1 <0>        -0.1626
      2 C2          0.0434   -0.1074    0.2069 C.3       1 <0>        -0.1253
      3 C3          0.8087   -0.5269   -1.0498 C.3       1 <0>        -0.0494
      4 C4          2.2522   -0.1042   -0.9284 C.ar      1 <0>        -0.1282
      5 C5          2.5614    1.0224   -0.2433 C.ar      1 <0>        -0.0012
      6 C6          3.9056    1.4284   -0.1175 C.ar      1 <0>        -0.1818
      7 C7          4.2386    2.5941    0.5915 C.2       1 <0>         0.0536
      8 C8          5.5766    2.9461    0.6845 C.2       1 <0>        -0.2303
      9 C9          6.5381    2.1552    0.0870 C.2       1 <0>         0.4471
     10 O1          7.8333    2.5141    0.1890 O.3       1 <0>        -0.3654
     11 O2          6.2262    1.0457   -0.5885 O.3       1 <0>        -0.1979
     12 C10         4.9391    0.6602   -0.7073 C.ar      1 <0>         0.2288
     13 C11         4.6194   -0.4839   -1.4035 C.ar      1 <0>        -0.2503
     14 C12         3.2721   -0.8819   -1.5263 C.ar      1 <0>         0.3574
     15 N1          2.9865   -1.9857   -2.2095 N.pl3     1 <0>        -0.6389
     16 C13         1.6172   -2.4554   -2.3981 C.3       1 <0>         0.0883
     17 C14         0.7558   -2.0515   -1.1994 C.3       1 <0>        -0.1088
     18 C15        -0.6899   -2.4947   -1.4332 C.3       1 <0>        -0.1506
     19 C16         3.1699    3.4403    1.2340 C.3       1 <0>         0.5055
     20 F1          2.5046    2.6900    2.2095 F         1 <0>        -0.1502
     21 F2          3.7579    4.5618    1.8289 F         1 <0>        -0.1500
     22 F3          2.2551    3.8548    0.2601 F         1 <0>        -0.1513
     23 H1          0.4646   -1.8820    1.3533 H         1 <0>         0.0623
     24 H2          1.7158   -0.6208    1.4640 H         1 <0>         0.0504
     25 H3          0.1752   -0.4248    2.3336 H         1 <0>         0.0660
     26 H4         -1.0048   -0.3884    0.1047 H         1 <0>         0.0873
     27 H5          0.1193    0.9723    0.3350 H         1 <0>         0.0711
     28 H6          0.3598   -0.0576   -1.9252 H         1 <0>         0.1057
     29 H7          1.7763    1.6113    0.2075 H         1 <0>         0.1641
     30 H8          5.8660    3.8367    1.2226 H         1 <0>         0.2054
     31 H9          5.4007   -1.0766   -1.8559 H         1 <0>         0.1692
     32 H10         3.7139   -2.4976   -2.5964 H         1 <0>         0.4236
     33 H11         1.2047   -2.0134   -3.3051 H         1 <0>         0.0964
     34 H12         1.6172   -3.5412   -2.4943 H         1 <0>         0.1107
     35 H13         1.1435   -2.5215   -0.2956 H         1 <0>         0.0944
     36 H14        -1.0704   -2.0283   -2.3419 H         1 <0>         0.0662
     37 H15        -0.7249   -3.5789   -1.5393 H         1 <0>         0.0684
     38 H16        -1.3042   -2.1926   -0.5850 H         1 <0>         0.0746
     39 H17         8.4448    1.9107   -0.2549 H         1 <0>         0.4455
@<TRIPOS>BOND
     1    1    2 1
     2    1   23 1
     3    1   24 1
     4    1   25 1
     5    2    3 1
     6    2   26 1
     7    2   27 1
     8    3   17 1
     9    3    4 1
    10    3   28 1
    11    4   14 ar
    12    4    5 ar
    13    5    6 ar
    14    5   29 1
    15    6   12 ar
    16    6    7 2
    17    7    8 1
    18    7   19 1
    19    8    9 2
    20    8   30 1
    21    9   10 1
    22    9   11 1
    23   10   39 1
    24   11   12 1
    25   12   13 ar
    26   13   14 ar
    27   13   31 1
    28   14   15 2
    29   15   16 1
    30   15   32 1
    31   16   17 1
    32   16   33 1
    33   16   34 1
    34   17   18 1
    35   17   35 1
    36   18   36 1
    37   18   37 1
    38   18   38 1
    39   19   20 1
    40   19   21 1
    41   19   22 1
@<TRIPOS>MOLECULE
CHEMBL268568__3
   39    41     0     0     0
SMALL
USER_CHARGES

@<TRIPOS>ATOM
      1 C1         -1.3949   -0.4845    0.5045 C.3       1 <0>        -0.1584
      2 C2          0.1055   -0.1860    0.5247 C.3       1 <0>        -0.1255
      3 C3          0.7741   -0.8510   -0.6802 C.3       1 <0>        -0.0492
      4 C4          2.2403   -0.4951   -0.7062 C.ar      1 <0>        -0.1276
      5 C5          2.6417    0.7109   -0.2386 C.ar      1 <0>        -0.0038
      6 C6          4.0085    1.0567   -0.2524 C.ar      1 <0>        -0.1811
      7 C7          4.4369    2.3038    0.2309 C.2       1 <0>         0.0531
      8 C8          5.7929    2.5912    0.1943 C.2       1 <0>        -0.2304
      9 C9          6.6793    1.6595   -0.3089 C.2       1 <0>         0.4465
     10 O1          7.9935    1.9576   -0.3356 O.3       1 <0>        -0.3656
     11 O2          6.2765    0.4721   -0.7698 O.3       1 <0>        -0.1981
     12 C10         4.9681    0.1445   -0.7555 C.ar      1 <0>         0.2293
     13 C11         4.5547   -1.0800   -1.2306 C.ar      1 <0>        -0.2516
     14 C12         3.1855   -1.4171   -1.2150 C.ar      1 <0>         0.3594
     15 N1          2.8087   -2.6016   -1.6858 N.pl3     1 <0>        -0.6365
     16 C13         1.4103   -3.0192   -1.7218 C.3       1 <0>         0.0895
     17 C14         0.6417   -2.3739   -0.5664 C.3       1 <0>        -0.1096
     18 C15         1.2297   -2.8423    0.7661 C.3       1 <0>        -0.1577
     19 C16         3.4489    3.3035    0.7745 C.3       1 <0>         0.5059
     20 F1          2.7458    2.7319    1.8404 F         1 <0>        -0.1512
     21 F2          4.1327    4.4388    1.2223 F         1 <0>        -0.1500
     22 F3          2.5509    3.6676   -0.2346 F         1 <0>        -0.1507
     23 H1         -1.8332   -0.0819   -0.4088 H         1 <0>         0.0606
     24 H2         -1.5514   -1.5627    0.5380 H         1 <0>         0.0610
     25 H3         -1.8692   -0.0214    1.3698 H         1 <0>         0.0649
     26 H4          0.2623    0.8916    0.4783 H         1 <0>         0.0699
     27 H5          0.5414   -0.5773    1.4439 H         1 <0>         0.0770
     28 H6          0.2959   -0.5098   -1.5983 H         1 <0>         0.1058
     29 H7          1.9132    1.4095    0.1455 H         1 <0>         0.1639
     30 H8          6.1549    3.5415    0.5582 H         1 <0>         0.2054
     31 H9          5.2792   -1.7823   -1.6154 H         1 <0>         0.1690
     32 H10         3.4872   -3.2106   -2.0170 H         1 <0>         0.4236
     33 H11         0.9653   -2.7121   -2.6683 H         1 <0>         0.0968
     34 H12         1.3542   -4.1041   -1.6325 H         1 <0>         0.1111
     35 H13        -0.4098   -2.6550   -0.6242 H         1 <0>         0.1158
     36 H14         0.6908   -2.3697    1.5873 H         1 <0>         0.0754
     37 H15         1.1344   -3.9253    0.8446 H         1 <0>         0.0675
     38 H16         2.2829   -2.5657    0.8158 H         1 <0>         0.0500
     39 H17         8.5488    1.2556   -0.7016 H         1 <0>         0.4454
@<TRIPOS>BOND
     1    1    2 1
     2    1   23 1
     3    1   24 1
     4    1   25 1
     5    2    3 1
     6    2   26 1
     7    2   27 1
     8    3   17 1
     9    3    4 1
    10    3   28 1
    11    4   14 ar
    12    4    5 ar
    13    5    6 ar
    14    5   29 1
    15    6   12 ar
    16    6    7 2
    17    7    8 1
    18    7   19 1
    19    8    9 2
    20    8   30 1
    21    9   10 1
    22    9   11 1
    23   10   39 1
    24   11   12 1
    25   12   13 ar
    26   13   14 ar
    27   13   31 1
    28   14   15 2
    29   15   16 1
    30   15   32 1
    31   16   17 1
    32   16   33 1
    33   16   34 1
    34   17   18 1
    35   17   35 1
    36   18   36 1
    37   18   37 1
    38   18   38 1
    39   19   20 1
    40   19   21 1
    41   19   22 1
@<TRIPOS>MOLECULE
CHEMBL231502
   50    53     0     0     0
SMALL
USER_CHARGES

@<TRIPOS>ATOM
      1 C1          8.1550   -4.2274   -0.9441 C.ar      1 <0>        -0.1243
      2 C2          8.7360   -3.8083    0.2381 C.ar      1 <0>        -0.1205
      3 C3          7.9632   -3.6648    1.3752 C.ar      1 <0>        -0.1059
      4 C4          6.6093   -3.9399    1.3300 C.ar      1 <0>        -0.0737
      5 C5          6.0281   -4.3582    0.1476 C.ar      1 <0>        -0.1156
      6 C6          6.8012   -4.5031   -0.9892 C.ar      1 <0>        -0.1239
      7 C7          5.7669   -3.7844    2.5699 C.3       1 <0>        -0.0053
      8 C8          5.2466   -2.3723    2.6499 C.2       1 <0>        -0.2908
      9 C9          4.0100   -2.0602    2.1575 C.2       1 <0>         0.4629
     10 N1          3.5573   -0.7659    2.2418 N.am      1 <0>        -0.6472
     11 H1          2.6807   -0.5380    1.8946 H         1 <0>         0.4304
     12 C10         4.3229    0.1876    2.8036 C.2       1 <0>         0.7082
     13 O1          3.9066    1.3280    2.8699 O.2       1 <0>        -0.5407
     14 N2          5.5420   -0.1023    3.2935 N.am      1 <0>        -0.6602
     15 H2          6.0781    0.5993    3.6952 H         1 <0>         0.4322
     16 C11         6.0224   -1.3600    3.2361 C.2       1 <0>         0.5625
     17 O2          7.1261   -1.6161    3.6863 O.2       1 <0>        -0.5130
     18 N3          3.2285   -3.0305    1.5842 N.pl3     1 <0>        -0.6409
     19 C12         2.7477   -2.8854    0.2034 C.3       1 <0>         0.1246
     20 C13         1.2251   -3.0542    0.1913 C.3       1 <0>        -0.1398
     21 C14         0.8583   -4.3871    0.8478 C.3       1 <0>        -0.1099
     22 C15         1.3329   -4.3886    2.3028 C.3       1 <0>        -0.0622
     23 C16         2.8613   -4.2376    2.3370 C.3       1 <0>         0.1411
     24 C17         0.9427   -5.6886    2.9577 C.ar      1 <0>        -0.0814
     25 C18         1.4181   -6.8855    2.4554 C.ar      1 <0>        -0.1135
     26 C19         1.0602   -8.0780    3.0562 C.ar      1 <0>        -0.1165
     27 C20         0.2274   -8.0735    4.1594 C.ar      1 <0>        -0.1198
     28 C21        -0.2473   -6.8765    4.6622 C.ar      1 <0>        -0.1169
     29 C22         0.1140   -5.6838    4.0641 C.ar      1 <0>        -0.1132
     30 H3          8.7580   -4.3353   -1.8336 H         1 <0>         0.1184
     31 H4          9.7938   -3.5934    0.2735 H         1 <0>         0.1197
     32 H5          8.4173   -3.3380    2.2991 H         1 <0>         0.1278
     33 H6          4.9703   -4.5735    0.1123 H         1 <0>         0.1172
     34 H7          6.3472   -4.8302   -1.9129 H         1 <0>         0.1181
     35 H8          4.9279   -4.4790    2.5286 H         1 <0>         0.0863
     36 H9          6.3730   -3.9987    3.4502 H         1 <0>         0.0869
     37 H10         3.0087   -1.8961   -0.1723 H         1 <0>         0.0777
     38 H11         3.2051   -3.6497   -0.4249 H         1 <0>         0.0768
     39 H12         0.7640   -2.2366    0.7454 H         1 <0>         0.0677
     40 H13         0.8663   -3.0447   -0.8379 H         1 <0>         0.0806
     41 H14        -0.2230   -4.5210    0.8184 H         1 <0>         0.0701
     42 H15         1.3398   -5.2024    0.3079 H         1 <0>         0.0697
     43 H16         0.8708   -3.5585    2.8370 H         1 <0>         0.0833
     44 H17         3.3277   -5.1099    1.8791 H         1 <0>         0.0773
     45 H18         3.1973   -4.1408    3.3694 H         1 <0>         0.0868
     46 H19         2.0688   -6.8891    1.5935 H         1 <0>         0.1216
     47 H20         1.4311   -9.0132    2.6633 H         1 <0>         0.1228
     48 H21        -0.0528   -9.0052    4.6283 H         1 <0>         0.1219
     49 H22        -0.8982   -6.8730    5.5240 H         1 <0>         0.1223
     50 H23        -0.2538   -4.7484    4.4592 H         1 <0>         0.1203
@<TRIPOS>BOND
     1    1    6 ar
     2    1    2 ar
     3    1   30 1
     4    2    3 ar
     5    2   31 1
     6    3    4 ar
     7    3   32 1
     8    4    5 ar
     9    4    7 1
    10    5    6 ar
    11    5   33 1
    12    6   34 1
    13    7    8 1
    14    7   35 1
    15    7   36 1
    16    8   16 1
    17    8    9 2
    18    9   10 1
    19    9   18 1
    20   10   11 1
    21   10   12 am
    22   12   13 2
    23   12   14 am
    24   14   15 1
    25   14   16 am
    26   16   17 2
    27   18   23 1
    28   18   19 1
    29   19   20 1
    30   19   37 1
    31   19   38 1
    32   20   21 1
    33   20   39 1
    34   20   40 1
    35   21   22 1
    36   21   41 1
    37   21   42 1
    38   22   23 1
    39   22   24 1
    40   22   43 1
    41   23   44 1
    42   23   45 1
    43   24   29 ar
    44   24   25 ar
    45   25   26 ar
    46   25   46 1
    47   26   27 ar
    48   26   47 1
    49   27   28 ar
    50   27   48 1
    51   28   29 ar
    52   28   49 1
    53   29   50 1
@<TRIPOS>MOLECULE
CHEMBL231502__1
   50    53     0     0     0
SMALL
USER_CHARGES

@<TRIPOS>ATOM
      1 C1         -1.1412   -1.1185    4.1806 C.ar      1 <0>        -0.1242
      2 C2         -0.5419    0.1259    4.1252 C.ar      1 <0>        -0.1207
      3 C3          0.5011    0.3522    3.2467 C.ar      1 <0>        -0.1059
      4 C4          0.9451   -0.6661    2.4240 C.ar      1 <0>        -0.0741
      5 C5          0.3464   -1.9108    2.4801 C.ar      1 <0>        -0.1152
      6 C6         -0.6975   -2.1367    3.3576 C.ar      1 <0>        -0.1238
      7 C7          2.0816   -0.4191    1.4656 C.3       1 <0>        -0.0049
      8 C8          3.3903   -0.7163    2.1510 C.2       1 <0>        -0.2918
      9 C9          3.9753   -1.9457    2.0253 C.2       1 <0>         0.4635
     10 N1          5.1685   -2.1930    2.6596 N.am      1 <0>        -0.6477
     11 H1          5.5888   -3.0630    2.5741 H         1 <0>         0.4300
     12 C10         5.7578   -1.2350    3.3985 C.2       1 <0>         0.7083
     13 O1          6.8137   -1.4712    3.9530 O.2       1 <0>        -0.5405
     14 N2          5.1962   -0.0198    3.5324 N.am      1 <0>        -0.6602
     15 H2          5.6374    0.6573    4.0690 H         1 <0>         0.4322
     16 C11         4.0290    0.2668    2.9229 C.2       1 <0>         0.5627
     17 O2          3.5285    1.3718    3.0449 O.2       1 <0>        -0.5133
     18 N3          3.3760   -2.9233    1.2731 N.pl3     1 <0>        -0.6397
     19 C12         3.0598   -2.6902   -0.1427 C.3       1 <0>         0.1298
     20 C13         3.6764   -3.8169   -0.9776 C.3       1 <0>        -0.1384
     21 C14         3.1953   -5.1667   -0.4401 C.3       1 <0>        -0.1099
     22 C15         3.6547   -5.3332    1.0102 C.3       1 <0>        -0.0645
     23 C16         3.0434   -4.2258    1.8660 C.3       1 <0>         0.1350
     24 C17         3.2084   -6.6761    1.5282 C.ar      1 <0>        -0.0821
     25 C18         1.8629   -6.9918    1.5613 C.ar      1 <0>        -0.1132
     26 C19         1.4535   -8.2236    2.0365 C.ar      1 <0>        -0.1166
     27 C20         2.3895   -9.1400    2.4781 C.ar      1 <0>        -0.1198
     28 C21         3.7350   -8.8247    2.4441 C.ar      1 <0>        -0.1168
     29 C22         4.1447   -7.5945    1.9650 C.ar      1 <0>        -0.1139
     30 H3         -1.9532   -1.2966    4.8702 H         1 <0>         0.1183
     31 H4         -0.8889    0.9215    4.7679 H         1 <0>         0.1196
     32 H5          0.9688    1.3247    3.2028 H         1 <0>         0.1277
     33 H6          0.6931   -2.7062    1.8371 H         1 <0>         0.1169
     34 H7         -1.1655   -3.1090    3.4012 H         1 <0>         0.1178
     35 H8          1.9712   -1.0674    0.5963 H         1 <0>         0.0871
     36 H9          2.0673    0.6229    1.1459 H         1 <0>         0.0869
     37 H10         1.9784   -2.6839   -0.2793 H         1 <0>         0.0760
     38 H11         3.4754   -1.7329   -0.4572 H         1 <0>         0.0868
     39 H12         3.3689   -3.7091   -2.0178 H         1 <0>         0.0825
     40 H13         4.7632   -3.7656   -0.9118 H         1 <0>         0.0687
     41 H14         2.1069   -5.2077   -0.4832 H         1 <0>         0.0698
     42 H15         3.6131   -5.9693   -1.0478 H         1 <0>         0.0702
     43 H16         4.7417   -5.2676    1.0573 H         1 <0>         0.0816
     44 H17         3.4484   -4.2813    2.8765 H         1 <0>         0.0779
     45 H18         1.9607   -4.3475    1.8968 H         1 <0>         0.0784
     46 H19         1.1317   -6.2758    1.2163 H         1 <0>         0.1214
     47 H20         0.4023   -8.4699    2.0630 H         1 <0>         0.1227
     48 H21         2.0695  -10.1021    2.8500 H         1 <0>         0.1220
     49 H22         4.4662   -9.5405    2.7895 H         1 <0>         0.1226
     50 H23         5.1961   -7.3496    1.9350 H         1 <0>         0.1207
@<TRIPOS>BOND
     1    1    6 ar
     2    1    2 ar
     3    1   30 1
     4    2    3 ar
     5    2   31 1
     6    3    4 ar
     7    3   32 1
     8    4    5 ar
     9    4    7 1
    10    5    6 ar
    11    5   33 1
    12    6   34 1
    13    7    8 1
    14    7   35 1
    15    7   36 1
    16    8   16 1
    17    8    9 2
    18    9   10 1
    19    9   18 1
    20   10   11 1
    21   10   12 am
    22   12   13 2
    23   12   14 am
    24   14   15 1
    25   14   16 am
    26   16   17 2
    27   18   23 1
    28   18   19 1
    29   19   20 1
    30   19   37 1
    31   19   38 1
    32   20   21 1
    33   20   39 1
    34   20   40 1
    35   21   22 1
    36   21   41 1
    37   21   42 1
    38   22   23 1
    39   22   24 1
    40   22   43 1
    41   23   44 1
    42   23   45 1
    43   24   29 ar
    44   24   25 ar
    45   25   26 ar
    46   25   46 1
    47   26   27 ar
    48   26   47 1
    49   27   28 ar
    50   27   48 1
    51   28   29 ar
    52   28   49 1
    53   29   50 1
@<TRIPOS>MOLECULE
CHEMBL396253
   47    50     0     0     0
SMALL
USER_CHARGES

@<TRIPOS>ATOM
      1 C1         -1.1168   -0.2920    3.3047 C.ar      1 <0>        -0.1233
      2 C2         -0.3135    0.8241    3.1641 C.ar      1 <0>        -0.1204
      3 C3          0.8358    0.7565    2.3989 C.ar      1 <0>        -0.1075
      4 C4          1.1820   -0.4273    1.7748 C.ar      1 <0>        -0.0760
      5 C5          0.3791   -1.5437    1.9162 C.ar      1 <0>        -0.1172
      6 C6         -0.7709   -1.4757    2.6802 C.ar      1 <0>        -0.1236
      7 C7          2.4344   -0.5007    0.9398 C.3       1 <0>        -0.0005
      8 C8          3.6204   -0.7535    1.8345 C.2       1 <0>        -0.2644
      9 C9          4.0669   -2.0275    2.0504 C.2       1 <0>         0.4744
     10 N1          5.1500   -2.2329    2.8701 N.am      1 <0>        -0.6472
     11 H1          5.4719   -3.1344    3.0271 H         1 <0>         0.4304
     12 C10         5.7674   -1.1906    3.4561 C.2       1 <0>         0.7061
     13 O1          6.7246   -1.3906    4.1785 O.2       1 <0>        -0.5400
     14 N2          5.3415    0.0696    3.2541 N.am      1 <0>        -0.6586
     15 H2          5.8007    0.8072    3.6853 H         1 <0>         0.4331
     16 C11         4.2861    0.3162    2.4533 C.2       1 <0>         0.5601
     17 O2          3.9087    1.4612    2.2712 O.2       1 <0>        -0.5093
     18 N3          3.4387   -3.0911    1.4545 N.pl3     1 <0>        -0.6688
     19 C12         3.5225   -3.4484    0.0267 C.3       1 <0>         0.1247
     20 C13         3.2064   -4.9641   -0.0220 C.3       1 <0>        -0.1247
     21 C14         2.1162   -5.0903    1.0748 C.3       1 <0>        -0.0569
     22 C15         2.5754   -4.0674    2.1350 C.3       1 <0>         0.1254
     23 C16         2.1003   -6.4819    1.6530 C.ar      1 <0>        -0.0779
     24 C17         3.2367   -6.9957    2.2492 C.ar      1 <0>        -0.1145
     25 C18         3.2220   -8.2722    2.7796 C.ar      1 <0>        -0.1170
     26 C19         2.0708   -9.0347    2.7141 C.ar      1 <0>        -0.1194
     27 C20         0.9342   -8.5205    2.1187 C.ar      1 <0>        -0.1165
     28 C21         0.9475   -7.2425    1.5921 C.ar      1 <0>        -0.1118
     29 H3         -2.0124   -0.2405    3.9062 H         1 <0>         0.1189
     30 H4         -0.5840    1.7490    3.6517 H         1 <0>         0.1200
     31 H5          1.4630    1.6288    2.2885 H         1 <0>         0.1294
     32 H6          0.6494   -2.4685    1.4283 H         1 <0>         0.1205
     33 H7         -1.3984   -2.3478    2.7903 H         1 <0>         0.1190
     34 H8          2.3433   -1.3132    0.2189 H         1 <0>         0.0857
     35 H9          2.5734    0.4415    0.4097 H         1 <0>         0.0885
     36 H10         2.7850   -2.8884   -0.5484 H         1 <0>         0.0717
     37 H11         4.5259   -3.2577   -0.3539 H         1 <0>         0.0735
     38 H12         2.8139   -5.2502   -0.9978 H         1 <0>         0.0904
     39 H13         4.0864   -5.5550    0.2319 H         1 <0>         0.0808
     40 H14         1.1365   -4.8256    0.6770 H         1 <0>         0.0970
     41 H15         3.1356   -4.5724    2.9219 H         1 <0>         0.0619
     42 H16         1.7081   -3.5624    2.5601 H         1 <0>         0.0736
     43 H17         4.1361   -6.4000    2.3003 H         1 <0>         0.1196
     44 H18         4.1101   -8.6739    3.2447 H         1 <0>         0.1223
     45 H19         2.0596  -10.0322    3.1278 H         1 <0>         0.1222
     46 H20         0.0349   -9.1164    2.0672 H         1 <0>         0.1233
     47 H21         0.0584   -6.8394    1.1303 H         1 <0>         0.1232
@<TRIPOS>BOND
     1    1    6 ar
     2    1    2 ar
     3    1   29 1
     4    2    3 ar
     5    2   30 1
     6    3    4 ar
     7    3   31 1
     8    4    5 ar
     9    4    7 1
    10    5    6 ar
    11    5   32 1
    12    6   33 1
    13    7    8 1
    14    7   34 1
    15    7   35 1
    16    8   16 1
    17    8    9 2
    18    9   10 1
    19    9   18 1
    20   10   11 1
    21   10   12 am
    22   12   13 2
    23   12   14 am
    24   14   15 1
    25   14   16 am
    26   16   17 2
    27   18   22 1
    28   18   19 1
    29   19   20 1
    30   19   36 1
    31   19   37 1
    32   20   21 1
    33   20   38 1
    34   20   39 1
    35   21   22 1
    36   21   23 1
    37   21   40 1
    38   22   41 1
    39   22   42 1
    40   23   28 ar
    41   23   24 ar
    42   24   25 ar
    43   24   43 1
    44   25   26 ar
    45   25   44 1
    46   26   27 ar
    47   26   45 1
    48   27   28 ar
    49   27   46 1
    50   28   47 1
@<TRIPOS>MOLECULE
CHEMBL396253__1
   47    50     0     0     0
SMALL
USER_CHARGES

@<TRIPOS>ATOM
      1 C1          8.0217   -3.3965   -1.6312 C.ar      1 <0>        -0.1254
      2 C2          6.9924   -4.0510   -0.9806 C.ar      1 <0>        -0.1214
      3 C3          5.8992   -3.3383   -0.5247 C.ar      1 <0>        -0.1283
      4 C4          5.8354   -1.9712   -0.7189 C.ar      1 <0>        -0.0740
      5 C5          6.8651   -1.3166   -1.3687 C.ar      1 <0>        -0.1063
      6 C6          7.9576   -2.0294   -1.8259 C.ar      1 <0>        -0.1179
      7 C7          4.6432   -1.1944   -0.2227 C.3       1 <0>        -0.0327
      8 C8          4.5608   -1.3050    1.2780 C.2       1 <0>        -0.3480
      9 C9          3.8559   -2.3213    1.8607 C.2       1 <0>         0.4931
     10 N1          3.7952   -2.4011    3.2308 N.am      1 <0>        -0.6475
     11 H1          3.2971   -3.1200    3.6503 H         1 <0>         0.4311
     12 C10         4.4233   -1.4881    3.9942 C.2       1 <0>         0.7152
     13 O1          4.3591   -1.5739    5.2053 O.2       1 <0>        -0.5390
     14 N2          5.1216   -0.4819    3.4373 N.am      1 <0>        -0.6628
     15 H2          5.5677    0.1657    4.0052 H         1 <0>         0.4316
     16 C11         5.2114   -0.3693    2.0975 C.2       1 <0>         0.5690
     17 O2          5.8499    0.5424    1.6000 O.2       1 <0>        -0.5207
     18 N3          3.2149   -3.2524    1.0843 N.pl3     1 <0>        -0.6131
     19 C12         2.8530   -3.0854   -0.3308 C.3       1 <0>         0.0876
     20 C13         2.1776   -4.3953   -0.7888 C.3       1 <0>        -0.1265
     21 C14         2.7048   -5.4346    0.2356 C.3       1 <0>        -0.0558
     22 C15         2.7801   -4.5892    1.5288 C.3       1 <0>         0.0997
     23 C16         1.7366   -6.5789    0.3910 C.ar      1 <0>        -0.0792
     24 C17         0.4367   -6.3347    0.7928 C.ar      1 <0>        -0.1149
     25 C18        -0.4515   -7.3843    0.9354 C.ar      1 <0>        -0.1162
     26 C19        -0.0398   -8.6782    0.6757 C.ar      1 <0>        -0.1176
     27 C20         1.2599   -8.9223    0.2730 C.ar      1 <0>        -0.1161
     28 C21         2.1468   -7.8722    0.1263 C.ar      1 <0>        -0.1102
     29 H3          8.8778   -3.9526   -1.9835 H         1 <0>         0.1187
     30 H4          7.0423   -5.1191   -0.8289 H         1 <0>         0.1169
     31 H5          5.0948   -3.8498   -0.0170 H         1 <0>         0.1226
     32 H6          6.8151   -0.2485   -1.5208 H         1 <0>         0.1233
     33 H7          8.7619   -1.5181   -2.3339 H         1 <0>         0.1206
     34 H8          4.7491   -0.1469   -0.5046 H         1 <0>         0.0863
     35 H9          3.7345   -1.6003   -0.6673 H         1 <0>         0.1087
     36 H10         2.1585   -2.2524   -0.4400 H         1 <0>         0.0821
     37 H11         3.7494   -2.9035   -0.9237 H         1 <0>         0.1118
     38 H12         1.0925   -4.3110   -0.7290 H         1 <0>         0.0851
     39 H13         2.4901   -4.6573   -1.7996 H         1 <0>         0.0943
     40 H14         3.6929   -5.7967   -0.0486 H         1 <0>         0.0987
     41 H15         3.5085   -5.0149    2.2190 H         1 <0>         0.0822
     42 H16         1.7987   -4.5319    1.9995 H         1 <0>         0.0795
     43 H17         0.1151   -5.3238    0.9957 H         1 <0>         0.1216
     44 H18        -1.4669   -7.1936    1.2500 H         1 <0>         0.1235
     45 H19        -0.7335   -9.4983    0.7878 H         1 <0>         0.1231
     46 H20         1.5816   -9.9332    0.0704 H         1 <0>         0.1241
     47 H21         3.1611   -8.0625   -0.1919 H         1 <0>         0.1232
@<TRIPOS>BOND
     1    1    6 ar
     2    1    2 ar
     3    1   29 1
     4    2    3 ar
     5    2   30 1
     6    3    4 ar
     7    3   31 1
     8    4    5 ar
     9    4    7 1
    10    5    6 ar
    11    5   32 1
    12    6   33 1
    13    7    8 1
    14    7   34 1
    15    7   35 1
    16    8   16 1
    17    8    9 2
    18    9   10 1
    19    9   18 1
    20   10   11 1
    21   10   12 am
    22   12   13 2
    23   12   14 am
    24   14   15 1
    25   14   16 am
    26   16   17 2
    27   18   22 1
    28   18   19 1
    29   19   20 1
    30   19   36 1
    31   19   37 1
    32   20   21 1
    33   20   38 1
    34   20   39 1
    35   21   22 1
    36   21   23 1
    37   21   40 1
    38   22   41 1
    39   22   42 1
    40   23   28 ar
    41   23   24 ar
    42   24   25 ar
    43   24   43 1
    44   25   26 ar
    45   25   44 1
    46   26   27 ar
    47   26   45 1
    48   27   28 ar
    49   27   46 1
    50   28   47 1
@<TRIPOS>MOLECULE
CHEMBL49632
   61    65     0     0     0
SMALL
USER_CHARGES

@<TRIPOS>ATOM
      1 C1         -0.0183    1.5001    0.0103 C.3       1 <0>        -0.1212
      2 C2          0.0021   -0.0041    0.0020 C.2       1 <0>        -0.0600
      3 C3         -0.1103   -0.5534   -1.2118 C.2       1 <0>        -0.1791
      4 C4         -0.0753   -2.0411   -1.4078 C.3       1 <0>         0.2123
      5 N1          0.7459   -2.6301   -0.3461 N.pl3     1 <0>        -0.7385
      6 C5          0.5751   -2.1780    0.9639 C.ar      1 <0>         0.2183
      7 C6          0.1299   -0.8524    1.1962 C.ar      1 <0>        -0.0856
      8 C7         -0.2044   -0.5012    2.4978 C.ar      1 <0>        -0.0566
      9 C8          0.0605   -1.4023    3.5476 C.ar      1 <0>        -0.0761
     10 C9          0.6803   -2.6213    3.3049 C.ar      1 <0>        -0.0439
     11 C10         0.9288   -3.0105    2.0073 C.ar      1 <0>        -0.1840
     12 C11        -0.3481   -1.0414    4.9273 C.ar      1 <0>        -0.1342
     13 C12        -0.5499    0.3190    5.2077 C.ar      1 <0>         0.1607
     14 C13        -0.9009    0.7276    6.4789 C.ar      1 <0>        -0.1792
     15 C14        -1.0621   -0.2103    7.4835 C.ar      1 <0>        -0.0491
     16 C15        -0.8801   -1.5525    7.2165 C.ar      1 <0>        -0.2353
     17 C16        -0.5324   -1.9759    5.9381 C.ar      1 <0>         0.1662
     18 O1         -0.4129   -3.3096    5.7057 O.3       1 <0>        -0.3092
     19 C17        -0.6231   -4.1831    6.8169 C.3       1 <0>         0.0240
     20 O2         -0.3995    1.2074    4.1965 O.3       1 <0>        -0.3012
     21 C18        -0.8491    0.7980    2.8962 C.3       1 <0>         0.1455
     22 C19        -2.3706    0.6150    2.9402 C.3       1 <0>        -0.1129
     23 C20        -3.0283    1.9420    3.2184 C.2       1 <0>        -0.1086
     24 C21        -3.4445    2.6367    2.2086 C.2       1 <0>        -0.1578
     25 C22        -4.1074    3.9779    2.3267 C.3       1 <0>        -0.0879
     26 C23        -4.5957    4.2001    3.7597 C.3       1 <0>        -0.1217
     27 C24        -3.4440    3.8777    4.7203 C.3       1 <0>        -0.1182
     28 C25        -3.1654    2.3731    4.6493 C.3       1 <0>        -0.0920
     29 C26        -1.4932   -2.6094   -1.3386 C.3       1 <0>        -0.1569
     30 C27         0.5382   -2.3676   -2.7700 C.3       1 <0>        -0.1522
     31 H1          0.6464    1.8682    0.7918 H         1 <0>         0.0675
     32 H2          0.3170    1.8733   -0.9574 H         1 <0>         0.0716
     33 H3         -1.0331    1.8486    0.2024 H         1 <0>         0.0713
     34 H4         -0.2284    0.0976   -2.0645 H         1 <0>         0.1230
     35 H5          1.3962   -3.3209   -0.5496 H         1 <0>         0.4017
     36 H6          1.0029   -3.2526    4.1185 H         1 <0>         0.1355
     37 H7          1.3992   -3.9625    1.8030 H         1 <0>         0.1260
     38 H8         -1.0485    1.7763    6.6924 H         1 <0>         0.1351
     39 H9         -1.3302    0.1100    8.4783 H         1 <0>         0.1325
     40 H10        -1.0114   -2.2817    8.0032 H         1 <0>         0.1324
     41 H11         0.1008   -3.9562    7.5995 H         1 <0>         0.0577
     42 H12        -1.6324   -4.0425    7.2038 H         1 <0>         0.0574
     43 H13        -0.4982   -5.2170    6.4951 H         1 <0>         0.1013
     44 H14        -0.6094    1.6179    2.2408 H         1 <0>         0.1269
     45 H15        -2.7182    0.2312    1.9811 H         1 <0>         0.0836
     46 H16        -2.6289   -0.0911    3.7293 H         1 <0>         0.0772
     47 H17        -3.3057    2.2257    1.2196 H         1 <0>         0.1008
     48 H18        -3.3934    4.7582    2.0631 H         1 <0>         0.0722
     49 H19        -4.9564    4.0225    1.6446 H         1 <0>         0.0691
     50 H20        -4.8986    5.2395    3.8866 H         1 <0>         0.0634
     51 H21        -5.4396    3.5416    3.9655 H         1 <0>         0.0625
     52 H22        -2.5540    4.4331    4.4245 H         1 <0>         0.0650
     53 H23        -3.7280    4.1491    5.7370 H         1 <0>         0.0637
     54 H24        -3.9868    1.8276    5.1139 H         1 <0>         0.0685
     55 H25        -2.2408    2.1534    5.1830 H         1 <0>         0.0859
     56 H26        -2.1040   -2.1583   -2.1206 H         1 <0>         0.0656
     57 H27        -1.4591   -3.6894   -1.4818 H         1 <0>         0.0597
     58 H28        -1.9272   -2.3856   -0.3641 H         1 <0>         0.0569
     59 H29         1.5534   -1.9734   -2.8152 H         1 <0>         0.0631
     60 H30         0.5617   -3.4486   -2.9082 H         1 <0>         0.0634
     61 H31        -0.0632   -1.9137   -3.5576 H         1 <0>         0.0742
@<TRIPOS>BOND
     1    1    2 1
     2    1   31 1
     3    1   32 1
     4    1   33 1
     5    2    7 1
     6    2    3 2
     7    3    4 1
     8    3   34 1
     9    4    5 1
    10    4   29 1
    11    4   30 1
    12    5    6 1
    13    5   35 1
    14    6   11 ar
    15    6    7 ar
    16    7    8 ar
    17    8   21 1
    18    8    9 ar
    19    9   10 ar
    20    9   12 1
    21   10   11 ar
    22   10   36 1
    23   11   37 1
    24   12   17 ar
    25   12   13 ar
    26   13   14 ar
    27   13   20 1
    28   14   15 ar
    29   14   38 1
    30   15   16 ar
    31   15   39 1
    32   16   17 ar
    33   16   40 1
    34   17   18 1
    35   18   19 1
    36   19   41 1
    37   19   42 1
    38   19   43 1
    39   20   21 1
    40   21   22 1
    41   21   44 1
    42   22   23 1
    43   22   45 1
    44   22   46 1
    45   23   28 1
    46   23   24 2
    47   24   25 1
    48   24   47 1
    49   25   26 1
    50   25   48 1
    51   25   49 1
    52   26   27 1
    53   26   50 1
    54   26   51 1
    55   27   28 1
    56   27   52 1
    57   27   53 1
    58   28   54 1
    59   28   55 1
    60   29   56 1
    61   29   57 1
    62   29   58 1
    63   30   59 1
    64   30   60 1
    65   30   61 1
@<TRIPOS>MOLECULE
CHEMBL49632__1
   61    65     0     0     0
SMALL
USER_CHARGES

@<TRIPOS>ATOM
      1 C1         -0.2204    1.7081    0.0104 C.3       1 <0>        -0.1257
      2 C2         -0.1642    0.2074   -0.1000 C.2       1 <0>        -0.0607
      3 C3         -0.3300   -0.2903   -1.3269 C.2       1 <0>        -0.1770
      4 C4         -0.2786   -1.7684   -1.5885 C.3       1 <0>         0.2127
      5 N1          0.5967   -2.4006   -0.5970 N.pl3     1 <0>        -0.7377
      6 C5          0.5063   -2.0002    0.7373 C.ar      1 <0>         0.2201
      7 C6          0.0640   -0.6908    1.0425 C.ar      1 <0>        -0.0894
      8 C7         -0.1795   -0.3804    2.3719 C.ar      1 <0>        -0.0604
      9 C8          0.2154   -1.2762    3.3824 C.ar      1 <0>        -0.0744
     10 C9          0.7834   -2.5010    3.0579 C.ar      1 <0>        -0.0456
     11 C10         0.9253   -2.8600    1.7336 C.ar      1 <0>        -0.1847
     12 C11        -0.0219   -0.8959    4.7957 C.ar      1 <0>        -0.1311
     13 C12        -1.0260    0.0554    5.0440 C.ar      1 <0>         0.1577
     14 C13        -1.3258    0.4336    6.3370 C.ar      1 <0>        -0.1760
     15 C14        -0.6302   -0.1223    7.3963 C.ar      1 <0>        -0.0517
     16 C15         0.3677   -1.0480    7.1634 C.ar      1 <0>        -0.2331
     17 C16         0.6817   -1.4342    5.8646 C.ar      1 <0>         0.1647
     18 O1          1.6980   -2.3162    5.6745 O.3       1 <0>        -0.3100
     19 C17         2.3560   -2.8093    6.8432 C.3       1 <0>         0.0243
     20 O2         -1.6734    0.5957    3.9788 O.3       1 <0>        -0.2992
     21 C18        -0.8532    0.8851    2.8325 C.3       1 <0>         0.1459
     22 C19         0.1990    1.9138    3.2502 C.3       1 <0>        -0.1136
     23 C20        -0.4779    3.2193    3.5797 C.2       1 <0>        -0.1239
     24 C21        -0.7655    3.4580    4.8190 C.2       1 <0>        -0.1405
     25 C22        -1.4473    4.7059    5.2986 C.3       1 <0>        -0.0896
     26 C23        -1.3634    5.7968    4.2288 C.3       1 <0>        -0.1208
     27 C24        -1.8126    5.1986    2.8897 C.3       1 <0>        -0.1195
     28 C25        -0.7712    4.1642    2.4514 C.3       1 <0>        -0.0842
     29 C26         0.2777   -2.0200   -2.9917 C.3       1 <0>        -0.1525
     30 C27        -1.6845   -2.3608   -1.4864 C.3       1 <0>        -0.1578
     31 H1          0.4881    2.0434    0.7679 H         1 <0>         0.0717
     32 H2          0.0375    2.1531   -0.9506 H         1 <0>         0.0707
     33 H3         -1.2274    2.0141    0.2940 H         1 <0>         0.0718
     34 H4         -0.5043    0.3929   -2.1445 H         1 <0>         0.1235
     35 H5          1.2296   -3.0877   -0.8635 H         1 <0>         0.4018
     36 H6          1.0957   -3.1906    3.8259 H         1 <0>         0.1356
     37 H7          1.3636   -3.8141    1.4751 H         1 <0>         0.1256
     38 H8         -2.1015    1.1614    6.5250 H         1 <0>         0.1340
     39 H9         -0.8692    0.1698    8.4075 H         1 <0>         0.1324
     40 H10         0.9102   -1.4772    7.9933 H         1 <0>         0.1324
     41 H11         2.7910   -1.9756    7.3943 H         1 <0>         0.0574
     42 H12         1.6343   -3.3260    7.4758 H         1 <0>         0.0576
     43 H13         3.1447   -3.5026    6.5508 H         1 <0>         0.1015
     44 H14        -1.5069    1.2841    2.0688 H         1 <0>         0.1248
     45 H15         0.7342    1.5505    4.1275 H         1 <0>         0.0778
     46 H16         0.9032    2.0660    2.4323 H         1 <0>         0.0869
     47 H17        -0.4984    2.7126    5.5535 H         1 <0>         0.1040
     48 H18        -2.4940    4.4871    5.5103 H         1 <0>         0.0733
     49 H19        -0.9620    5.0553    6.2099 H         1 <0>         0.0692
     50 H20        -2.0185    6.6253    4.4982 H         1 <0>         0.0637
     51 H21        -0.3357    6.1503    4.1458 H         1 <0>         0.0629
     52 H22        -2.7834    4.7178    3.0104 H         1 <0>         0.0653
     53 H23        -1.8816    5.9875    2.1407 H         1 <0>         0.0643
     54 H24         0.1471    4.6728    2.1581 H         1 <0>         0.0720
     55 H25        -1.1583    3.6027    1.6012 H         1 <0>         0.0705
     56 H26         1.2823   -1.6034   -3.0643 H         1 <0>         0.0629
     57 H27         0.3147   -3.0929   -3.1809 H         1 <0>         0.0632
     58 H28        -0.3676   -1.5431   -3.7293 H         1 <0>         0.0741
     59 H29        -2.3331   -1.8865   -2.2230 H         1 <0>         0.0659
     60 H30        -1.6417   -3.4332   -1.6770 H         1 <0>         0.0596
     61 H31        -2.0811   -2.1851   -0.4864 H         1 <0>         0.0574
@<TRIPOS>BOND
     1    1    2 1
     2    1   31 1
     3    1   32 1
     4    1   33 1
     5    2    7 1
     6    2    3 2
     7    3    4 1
     8    3   34 1
     9    4    5 1
    10    4   29 1
    11    4   30 1
    12    5    6 1
    13    5   35 1
    14    6   11 ar
    15    6    7 ar
    16    7    8 ar
    17    8   21 1
    18    8    9 ar
    19    9   10 ar
    20    9   12 1
    21   10   11 ar
    22   10   36 1
    23   11   37 1
    24   12   17 ar
    25   12   13 ar
    26   13   14 ar
    27   13   20 1
    28   14   15 ar
    29   14   38 1
    30   15   16 ar
    31   15   39 1
    32   16   17 ar
    33   16   40 1
    34   17   18 1
    35   18   19 1
    36   19   41 1
    37   19   42 1
    38   19   43 1
    39   20   21 1
    40   21   22 1
    41   21   44 1
    42   22   23 1
    43   22   45 1
    44   22   46 1
    45   23   28 1
    46   23   24 2
    47   24   25 1
    48   24   47 1
    49   25   26 1
    50   25   48 1
    51   25   49 1
    52   26   27 1
    53   26   50 1
    54   26   51 1
    55   27   28 1
    56   27   52 1
    57   27   53 1
    58   28   54 1
    59   28   55 1
    60   29   56 1
    61   29   57 1
    62   29   58 1
    63   30   59 1
    64   30   60 1
    65   30   61 1
@<TRIPOS>MOLECULE
CHEMBL414449
   72    77     0     0     0
SMALL
USER_CHARGES

@<TRIPOS>ATOM
      1 C1          1.0137    2.8952   -1.1315 C.3       1 <0>        -0.1519
      2 C2          0.7097    1.3963   -1.0889 C.3       1 <0>        -0.1203
      3 C3          1.4383    0.6953   -2.2372 C.3       1 <0>        -0.1115
      4 C4          1.1344   -0.8036   -2.1946 C.3       1 <0>         0.2159
      5 H1          0.0575   -0.9723   -2.1943 H         1 <0>         0.0696
      6 O1          1.7389   -1.4070   -1.0305 O.3       1 <0>        -0.3580
      7 C5          1.8367   -2.8078   -1.3564 C.3       1 <0>         0.0662
      8 H2          1.0056   -3.3794   -0.9434 H         1 <0>         0.1004
      9 C6          3.2005   -3.3404   -0.8642 C.3       1 <0>        -0.1348
     10 C7          3.7050   -4.1904   -2.0448 C.3       1 <0>        -0.0743
     11 C8          5.1862   -4.4743   -1.9627 C.3       1 <0>        -0.0861
     12 C9          5.5127   -5.1363   -0.6196 C.3       1 <0>        -0.1446
     13 C10         6.9733   -5.5917   -0.6232 C.3       1 <0>         0.1240
     14 H3          7.1137   -6.3641   -1.3793 H         1 <0>         0.1062
     15 C11         7.8537   -4.3978   -0.9452 C.2       1 <0>        -0.0695
     16 C12         8.8976   -4.1635   -0.1507 C.2       1 <0>        -0.2076
     17 C13         9.7893   -3.0316   -0.4262 C.2       1 <0>         0.3885
     18 O2         10.4954   -2.5502    0.4350 O.2       1 <0>        -0.4472
     19 C14         9.7820   -2.4958   -1.8445 C.3       1 <0>        -0.1637
     20 C15         8.3235   -2.2769   -2.2436 C.3       1 <0>        -0.1087
     21 C16         7.5126   -3.5564   -2.1361 C.3       1 <0>        -0.0405
     22 C17         6.0193   -3.2048   -2.1199 C.3       1 <0>         0.1485
     23 C18         5.6606   -2.5443   -3.4564 C.3       1 <0>         0.0926
     24 H4          6.2816   -1.6610   -3.6056 H         1 <0>         0.0730
     25 C19         4.1907   -2.1366   -3.4248 C.3       1 <0>        -0.1321
     26 C20         3.2952   -3.3699   -3.2788 C.3       1 <0>        -0.0108
     27 C21         1.8570   -2.8535   -2.9052 C.3       1 <0>         0.0972
     28 O3          1.7483   -1.4737   -3.3161 O.3       1 <0>        -0.3292
     29 S1          0.5321   -3.8906   -3.5832 S.3       1 <0>        -0.1704
     30 C22        -0.3848   -2.7715   -4.6774 C.3       1 <0>        -0.1321
     31 H5         -0.6574   -1.8588   -4.1476 H         1 <0>         0.1258
     32 C23        -1.6485   -3.4732   -5.2372 C.3       1 <0>        -0.1345
     33 C24        -1.6092   -3.0022   -6.7161 C.3       1 <0>         0.0532
     34 O4         -0.1941   -2.9513   -6.9956 O.3       1 <0>        -0.3383
     35 C25         0.4339   -2.4456   -5.9120 C.2       1 <0>         0.4889
     36 O5          1.4760   -1.8342   -5.9223 O.2       1 <0>        -0.4114
     37 C26         3.2878   -4.2198   -4.5511 C.3       1 <0>        -0.1528
     38 O6          5.8808   -3.4701   -4.5225 O.3       1 <0>        -0.5421
     39 F1          5.7523   -2.3319   -1.0597 F         1 <0>        -0.1844
     40 C27         7.7712   -4.3882   -3.3939 C.3       1 <0>        -0.1410
     41 F2          7.3094   -6.1007    0.6358 F         1 <0>        -0.1986
     42 H6          2.0877    3.0511   -1.0294 H         1 <0>         0.0565
     43 H7          0.6754    3.3076   -2.0820 H         1 <0>         0.0544
     44 H8          0.4947    3.3946   -0.3134 H         1 <0>         0.0581
     45 H9          1.0480    0.9838   -0.1384 H         1 <0>         0.0718
     46 H10        -0.3642    1.2403   -1.1910 H         1 <0>         0.0613
     47 H11         1.1000    1.1078   -3.1878 H         1 <0>         0.0834
     48 H12         2.5123    0.8513   -2.1351 H         1 <0>         0.0815
     49 H13         3.8851   -2.5158   -0.6653 H         1 <0>         0.1112
     50 H14         3.0729   -3.9571    0.0254 H         1 <0>         0.0815
     51 H15         3.1700   -5.1400   -2.0543 H         1 <0>         0.0840
     52 H16         5.4547   -5.1709   -2.7569 H         1 <0>         0.1104
     53 H17         5.3569   -4.4197    0.1868 H         1 <0>         0.0880
     54 H18         4.8629   -5.9988   -0.4715 H         1 <0>         0.0904
     55 H19         9.0869   -4.8066    0.6960 H         1 <0>         0.1460
     56 H20        10.3233   -1.5507   -1.8862 H         1 <0>         0.0969
     57 H21        10.2452   -3.2188   -2.5160 H         1 <0>         0.1034
     58 H22         7.8856   -1.5227   -1.5897 H         1 <0>         0.0754
     59 H23         8.2866   -1.9182   -3.2722 H         1 <0>         0.0884
     60 H24         4.0212   -1.4670   -2.5816 H         1 <0>         0.0830
     61 H25         3.9412   -1.6184   -4.3508 H         1 <0>         0.0853
     62 H26        -1.5604   -4.5573   -5.1669 H         1 <0>         0.1016
     63 H27        -2.5495   -3.1201   -4.7356 H         1 <0>         0.1082
     64 H28        -2.1055   -3.7240   -7.3648 H         1 <0>         0.1224
     65 H29        -2.0592   -2.0148   -6.8193 H         1 <0>         0.0872
     66 H30         2.5796   -5.0403   -4.4358 H         1 <0>         0.0646
     67 H31         2.9929   -3.6017   -5.3991 H         1 <0>         0.0610
     68 H32         4.2856   -4.6227   -4.7247 H         1 <0>         0.0896
     69 H33         5.6736   -3.1174   -5.3987 H         1 <0>         0.3813
     70 H34         6.9966   -5.1489   -3.4921 H         1 <0>         0.0720
     71 H35         7.7553   -3.7384   -4.2689 H         1 <0>         0.0943
     72 H36         8.7459   -4.8701   -3.3169 H         1 <0>         0.0531
@<TRIPOS>BOND
     1    1    2 1
     2    1   42 1
     3    1   43 1
     4    1   44 1
     5    2    3 1
     6    2   45 1
     7    2   46 1
     8    3    4 1
     9    3   47 1
    10    3   48 1
    11    4    5 1
    12    4   28 1
    13    4    6 1
    14    6    7 1
    15    7    8 1
    16    7   27 1
    17    7    9 1
    18    9   10 1
    19    9   49 1
    20    9   50 1
    21   10   26 1
    22   10   11 1
    23   10   51 1
    24   11   22 1
    25   11   12 1
    26   11   52 1
    27   12   13 1
    28   12   53 1
    29   12   54 1
    30   13   14 1
    31   13   15 1
    32   13   41 1
    33   15   21 1
    34   15   16 2
    35   16   17 1
    36   16   55 1
    37   17   18 2
    38   17   19 1
    39   19   20 1
    40   19   56 1
    41   19   57 1
    42   20   21 1
    43   20   58 1
    44   20   59 1
    45   21   22 1
    46   21   40 1
    47   22   23 1
    48   22   39 1
    49   23   24 1
    50   23   25 1
    51   23   38 1
    52   25   26 1
    53   25   60 1
    54   25   61 1
    55   26   27 1
    56   26   37 1
    57   27   28 1
    58   27   29 1
    59   29   30 1
    60   30   31 1
    61   30   35 1
    62   30   32 1
    63   32   33 1
    64   32   62 1
    65   32   63 1
    66   33   34 1
    67   33   64 1
    68   33   65 1
    69   34   35 1
    70   35   36 2
    71   37   66 1
    72   37   67 1
    73   37   68 1
    74   38   69 1
    75   40   70 1
    76   40   71 1
    77   40   72 1
@<TRIPOS>MOLECULE
CHEMBL414449__1
   72    77     0     0     0
SMALL
USER_CHARGES

@<TRIPOS>ATOM
      1 C1          0.1955    1.5953   -0.1469 C.3       1 <0>        -0.1524
      2 C2          0.1932    0.0657   -0.1125 C.3       1 <0>        -0.1182
      3 C3          0.8351   -0.4742   -1.3921 C.3       1 <0>        -0.1247
      4 C4          0.8328   -2.0020   -1.3577 C.3       1 <0>         0.2198
      5 H1         -0.1791   -2.3667   -1.1848 H         1 <0>         0.0730
      6 O1          1.6971   -2.4678   -0.3139 O.3       1 <0>        -0.3661
      7 C5          2.5780   -3.4576   -0.8797 C.3       1 <0>         0.0794
      8 H2          2.7003   -4.3297   -0.2377 H         1 <0>         0.1291
      9 C6          3.9127   -2.7834   -1.2403 C.3       1 <0>        -0.1386
     10 C7          4.2480   -3.1852   -2.6971 C.3       1 <0>        -0.0648
     11 C8          4.4302   -1.9188   -3.5016 C.3       1 <0>        -0.0962
     12 C9          5.6895   -1.1649   -3.0851 C.3       1 <0>        -0.1369
     13 C10         6.9252   -1.9268   -3.5695 C.3       1 <0>         0.1207
     14 H3          6.9716   -2.9028   -3.0933 H         1 <0>         0.1045
     15 C11         6.8158   -2.0834   -5.0760 C.2       1 <0>        -0.0764
     16 C12         7.8271   -1.6337   -5.8130 C.2       1 <0>        -0.2052
     17 C13         7.7904   -1.7533   -7.2738 C.2       1 <0>         0.3891
     18 O2          8.4785   -1.0589   -7.9916 O.2       1 <0>        -0.4487
     19 C14         6.8457   -2.7971   -7.8327 C.3       1 <0>        -0.1679
     20 C15         5.4915   -2.6099   -7.1529 C.3       1 <0>        -0.1024
     21 C16         5.5747   -2.7303   -5.6350 C.3       1 <0>        -0.0228
     22 C17         4.3444   -2.0930   -5.0057 C.3       1 <0>         0.1659
     23 C18         3.0219   -2.7564   -5.3551 C.3       1 <0>         0.1061
     24 H4          2.2158   -2.0405   -5.0653 H         1 <0>         0.0732
     25 C19         2.7512   -4.0464   -4.6174 C.3       1 <0>        -0.1381
     26 C20         3.1178   -4.0778   -3.1658 C.3       1 <0>        -0.0129
     27 C21         1.9146   -3.7877   -2.2526 C.3       1 <0>         0.0947
     28 O3          1.3241   -2.5192   -2.6078 O.3       1 <0>        -0.3196
     29 S1          0.7164   -5.1490   -2.1798 S.3       1 <0>        -0.1555
     30 C22        -0.8577   -4.3730   -2.6388 C.3       1 <0>        -0.1483
     31 H5         -1.0460   -3.4967   -2.0185 H         1 <0>         0.1286
     32 C23        -2.0217   -5.3888   -2.5123 C.3       1 <0>        -0.1332
     33 C24        -2.8274   -5.0665   -3.7997 C.3       1 <0>         0.0528
     34 O4         -1.7915   -4.7298   -4.7467 O.3       1 <0>        -0.3362
     35 C25        -0.8559   -3.9947   -4.1077 C.2       1 <0>         0.4860
     36 O5         -0.1354   -3.1709   -4.6197 O.2       1 <0>        -0.4095
     37 C26         3.5417   -5.5206   -2.8511 C.3       1 <0>        -0.1648
     38 O6          2.8813   -2.9486   -6.7643 O.3       1 <0>        -0.5526
     39 F1          4.2739   -0.7695   -5.5400 F         1 <0>        -0.2103
     40 C27         5.6755   -4.2193   -5.3144 C.3       1 <0>        -0.1551
     41 F2          8.0764   -1.1960   -3.2553 F         1 <0>        -0.1989
     42 H6          1.2217    1.9556   -0.2186 H         1 <0>         0.0560
     43 H7         -0.3719    1.9401   -1.0114 H         1 <0>         0.0545
     44 H8         -0.2618    1.9800    0.7647 H         1 <0>         0.0580
     45 H9          0.7606   -0.2790    0.7520 H         1 <0>         0.0719
     46 H10        -0.8330   -0.2946   -0.0408 H         1 <0>         0.0605
     47 H11         0.2677   -0.1294   -2.2566 H         1 <0>         0.0825
     48 H12         1.8613   -0.1139   -1.4638 H         1 <0>         0.0781
     49 H13         3.8150   -1.7005   -1.1676 H         1 <0>         0.0901
     50 H14         4.6998   -3.1299   -0.5707 H         1 <0>         0.0867
     51 H15         5.1790   -3.7553   -2.6884 H         1 <0>         0.0919
     52 H16         3.5803   -1.2610   -3.2275 H         1 <0>         0.0949
     53 H17         5.6835   -0.1671   -3.5283 H         1 <0>         0.0901
     54 H18         5.7231   -1.0716   -1.9987 H         1 <0>         0.0929
     55 H19         8.6840   -1.1777   -5.3364 H         1 <0>         0.1458
     56 H20         6.7383   -2.6554   -8.9105 H         1 <0>         0.0954
     57 H21         7.2344   -3.7955   -7.6370 H         1 <0>         0.1001
     58 H22         5.0899   -1.6338   -7.4119 H         1 <0>         0.0804
     59 H23         4.8255   -3.3910   -7.5266 H         1 <0>         0.1004
     60 H24         1.6613   -4.2354   -4.6753 H         1 <0>         0.0839
     61 H25         3.2121   -4.8888   -5.1310 H         1 <0>         0.0843
     62 H26        -1.6524   -6.4142   -2.5255 H         1 <0>         0.1023
     63 H27        -2.6153   -5.1978   -1.6184 H         1 <0>         0.1095
     64 H28        -3.3875   -5.9399   -4.1339 H         1 <0>         0.1236
     65 H29        -3.4927   -4.2185   -3.6371 H         1 <0>         0.0883
     66 H30         3.7020   -5.6264   -1.7782 H         1 <0>         0.0629
     67 H31         2.7580   -6.2075   -3.1708 H         1 <0>         0.0776
     68 H32         4.4657   -5.7516   -3.3811 H         1 <0>         0.0759
     69 H33         2.0498   -3.3691   -7.0229 H         1 <0>         0.3824
     70 H34         5.7314   -4.3554   -4.2344 H         1 <0>         0.0635
     71 H35         4.7960   -4.7344   -5.7005 H         1 <0>         0.0794
     72 H36         6.5712   -4.6313   -5.7794 H         1 <0>         0.0694
@<TRIPOS>BOND
     1    1    2 1
     2    1   42 1
     3    1   43 1
     4    1   44 1
     5    2    3 1
     6    2   45 1
     7    2   46 1
     8    3    4 1
     9    3   47 1
    10    3   48 1
    11    4    5 1
    12    4   28 1
    13    4    6 1
    14    6    7 1
    15    7    8 1
    16    7   27 1
    17    7    9 1
    18    9   10 1
    19    9   49 1
    20    9   50 1
    21   10   26 1
    22   10   11 1
    23   10   51 1
    24   11   22 1
    25   11   12 1
    26   11   52 1
    27   12   13 1
    28   12   53 1
    29   12   54 1
    30   13   14 1
    31   13   15 1
    32   13   41 1
    33   15   21 1
    34   15   16 2
    35   16   17 1
    36   16   55 1
    37   17   18 2
    38   17   19 1
    39   19   20 1
    40   19   56 1
    41   19   57 1
    42   20   21 1
    43   20   58 1
    44   20   59 1
    45   21   22 1
    46   21   40 1
    47   22   23 1
    48   22   39 1
    49   23   24 1
    50   23   25 1
    51   23   38 1
    52   25   26 1
    53   25   60 1
    54   25   61 1
    55   26   27 1
    56   26   37 1
    57   27   28 1
    58   27   29 1
    59   29   30 1
    60   30   31 1
    61   30   35 1
    62   30   32 1
    63   32   33 1
    64   32   62 1
    65   32   63 1
    66   33   34 1
    67   33   64 1
    68   33   65 1
    69   34   35 1
    70   35   36 2
    71   37   66 1
    72   37   67 1
    73   37   68 1
    74   38   69 1
    75   40   70 1
    76   40   71 1
    77   40   72 1
@<TRIPOS>MOLECULE
CHEMBL414449__2
   72    77     0     0     0
SMALL
USER_CHARGES

@<TRIPOS>ATOM
      1 C1         -1.4191    1.2149   -0.0274 C.3       1 <0>        -0.1522
      2 C2         -1.2557   -0.3063   -0.0141 C.3       1 <0>        -0.1195
      3 C3         -0.3686   -0.7341   -1.1850 C.3       1 <0>        -0.1125
      4 C4         -0.2052   -2.2553   -1.1718 C.3       1 <0>         0.2175
      5 H1         -1.1807   -2.7415   -1.1637 H         1 <0>         0.0700
      6 O1          0.5719   -2.6678   -0.0282 O.3       1 <0>        -0.3596
      7 C5          1.0978   -3.9632   -0.3821 C.3       1 <0>         0.0660
      8 H2          0.5224   -4.7787    0.0562 H         1 <0>         0.1063
      9 C6          2.5927   -4.0037    0.0368 C.3       1 <0>        -0.1131
     10 C7          3.3134   -3.4379   -1.1917 C.3       1 <0>        -0.0818
     11 C8          4.7749   -3.8247   -1.3328 C.3       1 <0>        -0.0929
     12 C9          5.5810   -3.2276   -0.1757 C.3       1 <0>        -0.1424
     13 C10         7.0378   -3.6815   -0.2918 C.3       1 <0>         0.1238
     14 H3          7.0944   -4.7631   -0.1689 H         1 <0>         0.1057
     15 C11         7.5612   -3.2972   -1.6636 C.2       1 <0>        -0.0694
     16 C12         8.7354   -2.6700   -1.7254 C.2       1 <0>        -0.2080
     17 C13         9.2972   -2.2885   -3.0254 C.2       1 <0>         0.3884
     18 O2         10.1311   -1.4133   -3.1291 O.2       1 <0>        -0.4475
     19 C14         8.7799   -3.0458   -4.2329 C.3       1 <0>        -0.1635
     20 C15         7.2537   -3.0328   -4.1615 C.3       1 <0>        -0.1080
     21 C16         6.7463   -3.6492   -2.8697 C.3       1 <0>        -0.0397
     22 C17         5.2853   -3.2350   -2.6554 C.3       1 <0>         0.1495
     23 C18         4.4522   -3.7077   -3.8433 C.3       1 <0>         0.0906
     24 H4          4.7889   -3.1906   -4.7418 H         1 <0>         0.0723
     25 C19         2.9555   -3.4281   -3.6354 C.3       1 <0>        -0.1217
     26 C20         2.5435   -4.1238   -2.3519 C.3       1 <0>        -0.0356
     27 C21         1.0700   -3.9853   -1.9391 C.3       1 <0>         0.1106
     28 O3          0.5639   -2.6889   -2.3140 O.3       1 <0>        -0.3274
     29 S1          0.0463   -5.3391   -2.5793 S.3       1 <0>        -0.1702
     30 C22        -1.2234   -4.5001   -3.5666 C.3       1 <0>        -0.1382
     31 H5         -1.6904   -3.7026   -2.9888 H         1 <0>         0.1246
     32 C23        -2.2896   -5.5134   -4.0553 C.3       1 <0>        -0.1338
     33 C24        -2.4966   -5.0326   -5.5170 C.3       1 <0>         0.0532
     34 O4         -1.1750   -4.5942   -5.8971 O.3       1 <0>        -0.3390
     35 C25        -0.6240   -3.9489   -4.8464 C.2       1 <0>         0.4875
     36 O5          0.2090   -3.0763   -4.9127 O.2       1 <0>        -0.4107
     37 C26         2.9216   -5.6048   -2.4208 C.3       1 <0>        -0.1554
     38 O6          4.6425   -5.1134   -4.0160 O.3       1 <0>        -0.5416
     39 F1          5.2131   -1.8394   -2.5895 F         1 <0>        -0.1919
     40 C27         6.7695   -5.1707   -3.0298 C.3       1 <0>        -0.1409
     41 F2          7.8041   -3.0563    0.6977 F         1 <0>        -0.1988
     42 H6         -0.4408    1.6863    0.0668 H         1 <0>         0.0567
     43 H7         -1.8819    1.5225   -0.9652 H         1 <0>         0.0546
     44 H8         -2.0511    1.5197    0.8067 H         1 <0>         0.0582
     45 H9         -0.7929   -0.6138    0.9236 H         1 <0>         0.0716
     46 H10        -2.2340   -0.7776   -0.1083 H         1 <0>         0.0612
     47 H11        -0.8313   -0.4266   -2.1228 H         1 <0>         0.0837
     48 H12         0.6097   -0.2627   -1.0909 H         1 <0>         0.0824
     49 H13         2.7655   -3.3731    0.9090 H         1 <0>         0.0897
     50 H14         2.9104   -5.0279    0.2319 H         1 <0>         0.0883
     51 H15         3.1902   -2.3559   -1.2395 H         1 <0>         0.0925
     52 H16         4.8733   -4.9102   -1.3462 H         1 <0>         0.1177
     53 H17         5.5337   -2.1396   -0.2220 H         1 <0>         0.0878
     54 H18         5.1669   -3.5712    0.7722 H         1 <0>         0.0912
     55 H19         9.2737   -2.4421   -0.8173 H         1 <0>         0.1457
     56 H20         9.1122   -2.5555   -5.1479 H         1 <0>         0.0966
     57 H21         9.1432   -4.0732   -4.2092 H         1 <0>         0.1034
     58 H22         6.9036   -2.0025   -4.2253 H         1 <0>         0.0738
     59 H23         6.8536   -3.5955   -5.0050 H         1 <0>         0.0900
     60 H24         2.7873   -2.3548   -3.5464 H         1 <0>         0.0850
     61 H25         2.3836   -3.8262   -4.4735 H         1 <0>         0.0822
     62 H26        -1.9056   -6.5331   -4.0271 H         1 <0>         0.1013
     63 H27        -3.2100   -5.4254   -3.4780 H         1 <0>         0.1077
     64 H28        -2.8283   -5.8548   -6.1510 H         1 <0>         0.1222
     65 H29        -3.2042   -4.2043   -5.5548 H         1 <0>         0.0870
     66 H30         2.4726   -6.1340   -1.5803 H         1 <0>         0.0452
     67 H31         2.5556   -6.0301   -3.3553 H         1 <0>         0.0682
     68 H32         4.0061   -5.7053   -2.3760 H         1 <0>         0.1081
     69 H33         4.1441   -5.4901   -4.7542 H         1 <0>         0.3772
     70 H34         6.0638   -5.6203   -2.3313 H         1 <0>         0.0695
     71 H35         6.4884   -5.4330   -4.0497 H         1 <0>         0.0990
     72 H36         7.7729   -5.5426   -2.8225 H         1 <0>         0.0519
@<TRIPOS>BOND
     1    1    2 1
     2    1   42 1
     3    1   43 1
     4    1   44 1
     5    2    3 1
     6    2   45 1
     7    2   46 1
     8    3    4 1
     9    3   47 1
    10    3   48 1
    11    4    5 1
    12    4   28 1
    13    4    6 1
    14    6    7 1
    15    7    8 1
    16    7   27 1
    17    7    9 1
    18    9   10 1
    19    9   49 1
    20    9   50 1
    21   10   26 1
    22   10   11 1
    23   10   51 1
    24   11   22 1
    25   11   12 1
    26   11   52 1
    27   12   13 1
    28   12   53 1
    29   12   54 1
    30   13   14 1
    31   13   15 1
    32   13   41 1
    33   15   21 1
    34   15   16 2
    35   16   17 1
    36   16   55 1
    37   17   18 2
    38   17   19 1
    39   19   20 1
    40   19   56 1
    41   19   57 1
    42   20   21 1
    43   20   58 1
    44   20   59 1
    45   21   22 1
    46   21   40 1
    47   22   23 1
    48   22   39 1
    49   23   24 1
    50   23   25 1
    51   23   38 1
    52   25   26 1
    53   25   60 1
    54   25   61 1
    55   26   27 1
    56   26   37 1
    57   27   28 1
    58   27   29 1
    59   29   30 1
    60   30   31 1
    61   30   35 1
    62   30   32 1
    63   32   33 1
    64   32   62 1
    65   32   63 1
    66   33   34 1
    67   33   64 1
    68   33   65 1
    69   34   35 1
    70   35   36 2
    71   37   66 1
    72   37   67 1
    73   37   68 1
    74   38   69 1
    75   40   70 1
    76   40   71 1
    77   40   72 1
@<TRIPOS>MOLECULE
CHEMBL414449__3
   72    77     0     0     0
SMALL
USER_CHARGES

@<TRIPOS>ATOM
      1 C1          0.5709    1.8065   -0.3697 C.3       1 <0>        -0.1521
      2 C2          0.4518    0.2819   -0.3217 C.3       1 <0>        -0.1196
      3 C3          1.1724   -0.3241   -1.5277 C.3       1 <0>        -0.1132
      4 C4          1.0532   -1.8493   -1.4797 C.3       1 <0>         0.2165
      5 H1          0.0064   -2.1460   -1.4029 H         1 <0>         0.0706
      6 O1          1.8098   -2.3800   -0.3735 O.3       1 <0>        -0.3628
      7 C5          2.1569   -3.7305   -0.7393 C.3       1 <0>         0.0698
      8 H2          1.6017   -4.4772   -0.1778 H         1 <0>         0.1103
      9 C6          3.6982   -3.8825   -0.5707 C.3       1 <0>        -0.1157
     10 C7          4.2089   -3.5582   -1.9784 C.3       1 <0>        -0.0834
     11 C8          5.6461   -3.8214   -2.3142 C.3       1 <0>        -0.0725
     12 C9          6.1653   -5.1913   -1.9417 C.3       1 <0>        -0.1363
     13 C10         7.6372   -5.3502   -2.3327 C.3       1 <0>         0.1220
     14 H3          7.7395   -6.2115   -2.9933 H         1 <0>         0.1094
     15 C11         8.1249   -4.1018   -3.0368 C.2       1 <0>        -0.0624
     16 C12         9.2633   -3.5600   -2.6029 C.2       1 <0>        -0.2125
     17 C13         9.8102   -2.3563   -3.2356 C.2       1 <0>         0.3878
     18 O2         10.6468   -1.6698   -2.6844 O.2       1 <0>        -0.4484
     19 C14         9.2826   -2.0144   -4.6147 C.3       1 <0>        -0.1672
     20 C15         7.7625   -2.1378   -4.5672 C.3       1 <0>        -0.1089
     21 C16         7.3188   -3.5468   -4.1750 C.3       1 <0>        -0.0354
     22 C17         5.8451   -3.4921   -3.8004 C.3       1 <0>         0.1554
     23 C18         4.9145   -4.2909   -4.6900 C.3       1 <0>         0.1053
     24 H4          5.0356   -3.9535   -5.7306 H         1 <0>         0.0674
     25 C19         3.4413   -4.0283   -4.3176 C.3       1 <0>        -0.1308
     26 C20         3.2059   -4.3244   -2.8602 C.3       1 <0>        -0.0164
     27 C21         1.8823   -3.7997   -2.2732 C.3       1 <0>         0.0967
     28 O3          1.6537   -2.4367   -2.6569 O.3       1 <0>        -0.3219
     29 S1          0.4951   -4.8875   -2.6789 S.3       1 <0>        -0.1722
     30 C22        -0.6539   -3.8145   -3.5841 C.3       1 <0>        -0.1418
     31 H5         -0.8489   -2.9026   -3.0197 H         1 <0>         0.1244
     32 C23        -1.9779   -4.5637   -3.8810 C.3       1 <0>        -0.1335
     33 C24        -2.2422   -4.1146   -5.3435 C.3       1 <0>         0.0531
     34 O4         -0.9108   -4.0241   -5.8933 O.3       1 <0>        -0.3388
     35 C25        -0.1018   -3.4824   -4.9573 C.2       1 <0>         0.4873
     36 O5          0.8974   -2.8391   -5.1756 O.2       1 <0>        -0.4104
     37 C26         3.1971   -5.8317   -2.6051 C.3       1 <0>        -0.1718
     38 O6          5.1803   -5.6862   -4.6319 O.3       1 <0>        -0.5490
     39 F1          5.4505   -2.1363   -3.9452 F         1 <0>        -0.2001
     40 C27         7.5463   -4.4392   -5.3922 C.3       1 <0>        -0.1487
     41 F2          8.3949   -5.5640   -1.1749 F         1 <0>        -0.2035
     42 H6          1.6231    2.0897   -0.3442 H         1 <0>         0.0567
     43 H7          0.1169    2.1777   -1.2885 H         1 <0>         0.0546
     44 H8          0.0575    2.2383    0.4894 H         1 <0>         0.0582
     45 H9          0.9058   -0.0893    0.5970 H         1 <0>         0.0718
     46 H10        -0.6005   -0.0013   -0.3472 H         1 <0>         0.0611
     47 H11         0.7184    0.0471   -2.4465 H         1 <0>         0.0838
     48 H12         2.2246   -0.0409   -1.5022 H         1 <0>         0.0826
     49 H13         4.0681   -3.1435    0.1456 H         1 <0>         0.0869
     50 H14         3.9670   -4.8826   -0.2548 H         1 <0>         0.0894
     51 H15         4.0264   -2.4620   -2.1340 H         1 <0>         0.0920
     52 H16         6.2593   -3.0783   -1.7488 H         1 <0>         0.0804
     53 H17         6.0796   -5.3343   -0.8592 H         1 <0>         0.0873
     54 H18         5.6194   -5.9883   -2.4370 H         1 <0>         0.1087
     55 H19         9.7903   -4.0162   -1.7753 H         1 <0>         0.1464
     56 H20         9.5609   -0.9887   -4.8680 H         1 <0>         0.0968
     57 H21         9.7010   -2.6943   -5.3542 H         1 <0>         0.1032
     58 H22         7.3766   -1.4338   -3.8298 H         1 <0>         0.0822
     59 H23         7.3500   -1.9018   -5.5457 H         1 <0>         0.0881
     60 H24         3.2003   -2.9815   -4.5297 H         1 <0>         0.0973
     61 H25         2.7990   -4.6635   -4.9361 H         1 <0>         0.0742
     62 H26        -1.8416   -5.6434   -3.8193 H         1 <0>         0.1013
     63 H27        -2.7757   -4.2312   -3.2169 H         1 <0>         0.1076
     64 H28        -2.8305   -4.8614   -5.8767 H         1 <0>         0.1221
     65 H29        -2.7366   -3.1434   -5.3662 H         1 <0>         0.0870
     66 H30         3.0593   -6.0192   -1.5402 H         1 <0>         0.0574
     67 H31         2.3807   -6.2899   -3.1634 H         1 <0>         0.0756
     68 H32         4.1451   -6.2607   -2.9298 H         1 <0>         0.0975
     69 H33         4.6000   -6.2207   -5.1911 H         1 <0>         0.3867
     70 H34         7.2247   -5.4552   -5.1630 H         1 <0>         0.0862
     71 H35         6.9707   -4.0574   -6.2354 H         1 <0>         0.0662
     72 H36         8.6060   -4.4424   -5.6474 H         1 <0>         0.0638
@<TRIPOS>BOND
     1    1    2 1
     2    1   42 1
     3    1   43 1
     4    1   44 1
     5    2    3 1
     6    2   45 1
     7    2   46 1
     8    3    4 1
     9    3   47 1
    10    3   48 1
    11    4    5 1
    12    4   28 1
    13    4    6 1
    14    6    7 1
    15    7    8 1
    16    7   27 1
    17    7    9 1
    18    9   10 1
    19    9   49 1
    20    9   50 1
    21   10   26 1
    22   10   11 1
    23   10   51 1
    24   11   22 1
    25   11   12 1
    26   11   52 1
    27   12   13 1
    28   12   53 1
    29   12   54 1
    30   13   14 1
    31   13   15 1
    32   13   41 1
    33   15   21 1
    34   15   16 2
    35   16   17 1
    36   16   55 1
    37   17   18 2
    38   17   19 1
    39   19   20 1
    40   19   56 1
    41   19   57 1
    42   20   21 1
    43   20   58 1
    44   20   59 1
    45   21   22 1
    46   21   40 1
    47   22   23 1
    48   22   39 1
    49   23   24 1
    50   23   25 1
    51   23   38 1
    52   25   26 1
    53   25   60 1
    54   25   61 1
    55   26   27 1
    56   26   37 1
    57   27   28 1
    58   27   29 1
    59   29   30 1
    60   30   31 1
    61   30   35 1
    62   30   32 1
    63   32   33 1
    64   32   62 1
    65   32   63 1
    66   33   34 1
    67   33   64 1
    68   33   65 1
    69   34   35 1
    70   35   36 2
    71   37   66 1
    72   37   67 1
    73   37   68 1
    74   38   69 1
    75   40   70 1
    76   40   71 1
    77   40   72 1
@<TRIPOS>MOLECULE
CHEMBL236201
   57    62     0     0     0
SMALL
USER_CHARGES

@<TRIPOS>ATOM
      1 C1         -0.3317    1.6204   -0.1516 C.3       1 <0>        -0.1392
      2 C2          0.2196    0.2133    0.0867 C.3       1 <0>        -0.0181
      3 C3         -0.9290   -0.7877    0.2335 C.3       1 <0>        -0.0283
      4 C4         -1.4681   -0.7231    1.6388 C.2       1 <0>        -0.2265
      5 C5         -2.7489   -0.9467    2.1122 C.2       1 <0>         0.0695
      6 N1         -2.7471   -0.7899    3.4171 N.2       1 <0>        -0.2937
      7 N2         -1.4471   -0.4553    3.8331 N.pl3     1 <0>        -0.3106
      8 C6         -0.6700   -0.4041    2.7298 C.2       1 <0>         0.1192
      9 C7          0.7561   -0.0655    2.5552 C.2       1 <0>        -0.1170
     10 C8          1.1174    0.2011    1.3053 C.2       1 <0>        -0.0599
     11 C9          2.5108    0.5264    0.8286 C.3       1 <0>        -0.0959
     12 C10         2.5423    0.2697   -0.6873 C.3       1 <0>        -0.1228
     13 C11         1.1331   -0.2076   -1.0810 C.3       1 <0>        -0.1057
     14 H1          1.1206   -1.2912   -1.1988 H         1 <0>         0.0838
     15 C12         0.6855    0.4728   -2.3763 C.3       1 <0>         0.1536
     16 H2          0.7716    1.5539   -2.2673 H         1 <0>         0.1136
     17 C13         1.5593    0.0114   -3.5140 C.ar      1 <0>        -0.1020
     18 C14         1.2768   -1.1495   -4.1665 C.ar      1 <0>        -0.1074
     19 C15         2.0732   -1.5921   -5.2206 C.ar      1 <0>        -0.1128
     20 C16         3.1572   -0.8767   -5.6284 C.ar      1 <0>        -0.1047
     21 C17         3.4803    0.3266   -4.9790 C.ar      1 <0>        -0.0508
     22 C18         2.6665    0.7800   -3.9107 C.ar      1 <0>        -0.0375
     23 C19         2.9865    1.9868   -3.2651 C.ar      1 <0>        -0.1149
     24 C20         4.0667    2.7048   -3.6767 C.ar      1 <0>        -0.1116
     25 C21         4.8632    2.2622   -4.7315 C.ar      1 <0>        -0.1161
     26 C22         4.5918    1.0921   -5.3714 C.ar      1 <0>        -0.1041
     27 O1         -0.6741    0.1284   -2.6499 O.3       1 <0>        -0.5456
     28 C23        -1.0332   -0.2181    5.1507 C.ar      1 <0>         0.1461
     29 C24         0.2394   -0.5955    5.5583 C.ar      1 <0>        -0.1030
     30 C25         0.6455   -0.3603    6.8571 C.ar      1 <0>        -0.1308
     31 C26        -0.2155    0.2515    7.7528 C.ar      1 <0>         0.0987
     32 C27        -1.4853    0.6282    7.3483 C.ar      1 <0>        -0.1325
     33 C28        -1.8932    0.4000    6.0488 C.ar      1 <0>        -0.0807
     34 F1          0.1836    0.4806    9.0230 F         1 <0>        -0.1330
     35 H3          0.4958    2.3170   -0.2859 H         1 <0>         0.0523
     36 H4         -0.9549    1.6199   -1.0459 H         1 <0>         0.0832
     37 H5         -0.9289    1.9270    0.7072 H         1 <0>         0.0544
     38 H6         -1.7215   -0.5384   -0.4721 H         1 <0>         0.0882
     39 H7         -0.5630   -1.7941    0.0300 H         1 <0>         0.0694
     40 H8         -3.6070   -1.2064    1.5100 H         1 <0>         0.1889
     41 H9          1.4486   -0.0272    3.3831 H         1 <0>         0.1383
     42 H10         2.7381    1.5727    1.0327 H         1 <0>         0.0840
     43 H11         3.2340   -0.1175    1.3291 H         1 <0>         0.0786
     44 H12         2.7863    1.1906   -1.2170 H         1 <0>         0.0799
     45 H13         3.2766   -0.5014   -0.9203 H         1 <0>         0.0713
     46 H14         0.4228   -1.7364   -3.8622 H         1 <0>         0.1210
     47 H15         1.8271   -2.5167   -5.7214 H         1 <0>         0.1247
     48 H16         3.7659   -1.2325   -6.4465 H         1 <0>         0.1274
     49 H17         2.3780    2.3425   -2.4468 H         1 <0>         0.1293
     50 H18         4.3104    3.6317   -3.1789 H         1 <0>         0.1241
     51 H19         5.7147    2.8513   -5.0386 H         1 <0>         0.1240
     52 H20         5.2183    0.7613   -6.1866 H         1 <0>         0.1275
     53 H21        -0.8252   -0.8204   -2.7591 H         1 <0>         0.3728
     54 H22         0.9110   -1.0729    4.8602 H         1 <0>         0.1420
     55 H23         1.6351   -0.6541    7.1746 H         1 <0>         0.1475
     56 H24        -2.1554    1.1049    8.0484 H         1 <0>         0.1472
     57 H25        -2.8818    0.6983    5.7325 H         1 <0>         0.1450
@<TRIPOS>BOND
     1    1    2 1
     2    1   35 1
     3    1   36 1
     4    1   37 1
     5    2   10 1
     6    2   13 1
     7    2    3 1
     8    3    4 1
     9    3   38 1
    10    3   39 1
    11    4    8 2
    12    4    5 1
    13    5    6 2
    14    5   40 1
    15    6    7 1
    16    7    8 1
    17    7   28 1
    18    8    9 1
    19    9   10 2
    20    9   41 1
    21   10   11 1
    22   11   12 1
    23   11   42 1
    24   11   43 1
    25   12   13 1
    26   12   44 1
    27   12   45 1
    28   13   14 1
    29   13   15 1
    30   15   16 1
    31   15   17 1
    32   15   27 1
    33   17   22 ar
    34   17   18 ar
    35   18   19 ar
    36   18   46 1
    37   19   20 ar
    38   19   47 1
    39   20   21 ar
    40   20   48 1
    41   21   26 ar
    42   21   22 ar
    43   22   23 ar
    44   23   24 ar
    45   23   49 1
    46   24   25 ar
    47   24   50 1
    48   25   26 ar
    49   25   51 1
    50   26   52 1
    51   27   53 1
    52   28   33 ar
    53   28   29 ar
    54   29   30 ar
    55   29   54 1
    56   30   31 ar
    57   30   55 1
    58   31   32 ar
    59   31   34 1
    60   32   33 ar
    61   32   56 1
    62   33   57 1
@<TRIPOS>MOLECULE
CHEMBL236202
   54    59     0     0     0
SMALL
USER_CHARGES

@<TRIPOS>ATOM
      1 C1         -0.3436    1.4770   -0.0886 C.3       1 <0>        -0.1218
      2 C2         -0.2059   -0.0467   -0.0771 C.3       1 <0>        -0.0248
      3 C3         -1.5769   -0.7037   -0.2540 C.3       1 <0>        -0.0303
      4 C4         -2.2934   -0.7235    1.0711 C.2       1 <0>        -0.2273
      5 C5         -3.6467   -0.6609    1.3525 C.2       1 <0>         0.0694
      6 N1         -3.8077   -0.7255    2.6552 N.2       1 <0>        -0.2934
      7 N2         -2.5458   -0.8333    3.2645 N.pl3     1 <0>        -0.3103
      8 C6         -1.6196   -0.8183    2.2818 C.2       1 <0>         0.1214
      9 C7         -0.1449   -0.8607    2.3298 C.2       1 <0>        -0.1183
     10 C8          0.4605   -0.5035    1.2030 C.2       1 <0>        -0.0562
     11 C9          1.9475   -0.5002    0.9504 C.3       1 <0>        -0.0942
     12 C10         2.1479   -0.5050   -0.5743 C.3       1 <0>        -0.1158
     13 C11         0.7425   -0.5061   -1.2017 C.3       1 <0>        -0.1052
     14 H1          0.4775   -1.5102   -1.5327 H         1 <0>         0.0894
     15 C12         0.6855    0.4728   -2.3763 C.3       1 <0>         0.1909
     16 H2         -0.3502    0.6042   -2.6897 H         1 <0>         0.1120
     17 C13         1.4926   -0.0739   -3.5255 C.2       1 <0>        -0.2075
     18 C14         2.7715    0.2026   -3.8140 C.2       1 <0>         0.0169
     19 O1          3.1546   -0.4704   -4.9130 O.3       1 <0>        -0.1906
     20 C15         2.1426   -1.2196   -5.3953 C.ar      1 <0>         0.0526
     21 C16         1.0377   -1.0214   -4.5502 C.ar      1 <0>        -0.1192
     22 C17        -0.1641   -1.6807   -4.8027 C.ar      1 <0>        -0.0719
     23 C18        -0.2606   -2.5295   -5.8834 C.ar      1 <0>        -0.1331
     24 C19         0.8309   -2.7284   -6.7161 C.ar      1 <0>        -0.0915
     25 C20         2.0228   -2.0764   -6.4817 C.ar      1 <0>        -0.1073
     26 O2          1.2246    1.7331   -1.9726 O.3       1 <0>        -0.5424
     27 C21        -2.2948   -0.9369    4.6392 C.ar      1 <0>         0.1459
     28 C22        -1.2361   -1.7106    5.0962 C.ar      1 <0>        -0.1028
     29 C23        -0.9901   -1.8110    6.4514 C.ar      1 <0>        -0.1308
     30 C24        -1.7984   -1.1408    7.3544 C.ar      1 <0>         0.0989
     31 C25        -2.8550   -0.3691    6.9006 C.ar      1 <0>        -0.1324
     32 C26        -3.1008   -0.2615    5.5460 C.ar      1 <0>        -0.0806
     33 F1         -1.5560   -1.2403    8.6798 F         1 <0>        -0.1330
     34 H3          0.6425    1.9317    0.0062 H         1 <0>         0.0702
     35 H4         -0.8009    1.7935   -1.0260 H         1 <0>         0.0677
     36 H5         -0.9704    1.7915    0.7458 H         1 <0>         0.0441
     37 H6         -2.1627   -0.1348   -0.9760 H         1 <0>         0.0792
     38 H7         -1.4476   -1.7247   -0.6132 H         1 <0>         0.0723
     39 H8         -4.4386   -0.5731    0.6233 H         1 <0>         0.1887
     40 H9          0.3985   -1.1496    3.2173 H         1 <0>         0.1386
     41 H10         2.3951    0.3956    1.3808 H         1 <0>         0.0853
     42 H11         2.4000   -1.3906    1.3870 H         1 <0>         0.0788
     43 H12         2.6936    0.3870   -0.8820 H         1 <0>         0.0654
     44 H13         2.6926   -1.3994   -0.8766 H         1 <0>         0.0722
     45 H14         3.4030    0.8699   -3.2462 H         1 <0>         0.2032
     46 H15        -1.0145   -1.5272   -4.1548 H         1 <0>         0.1280
     47 H16        -1.1898   -3.0424   -6.0831 H         1 <0>         0.1314
     48 H17         0.7442   -3.3964   -7.5603 H         1 <0>         0.1362
     49 H18         2.8662   -2.2405   -7.1361 H         1 <0>         0.1325
     50 H19         2.1727    1.7129   -1.7834 H         1 <0>         0.3675
     51 H20        -0.6057   -2.2337    4.3924 H         1 <0>         0.1421
     52 H21        -0.1670   -2.4129    6.8073 H         1 <0>         0.1476
     53 H22        -3.4844    0.1525    7.6064 H         1 <0>         0.1472
     54 H23        -3.9220    0.3444    5.1922 H         1 <0>         0.1450
@<TRIPOS>BOND
     1    1    2 1
     2    1   34 1
     3    1   35 1
     4    1   36 1
     5    2   10 1
     6    2   13 1
     7    2    3 1
     8    3    4 1
     9    3   37 1
    10    3   38 1
    11    4    8 2
    12    4    5 1
    13    5    6 2
    14    5   39 1
    15    6    7 1
    16    7    8 1
    17    7   27 1
    18    8    9 1
    19    9   10 2
    20    9   40 1
    21   10   11 1
    22   11   12 1
    23   11   41 1
    24   11   42 1
    25   12   13 1
    26   12   43 1
    27   12   44 1
    28   13   14 1
    29   13   15 1
    30   15   16 1
    31   15   17 1
    32   15   26 1
    33   17   21 1
    34   17   18 2
    35   18   19 1
    36   18   45 1
    37   19   20 1
    38   20   25 ar
    39   20   21 ar
    40   21   22 ar
    41   22   23 ar
    42   22   46 1
    43   23   24 ar
    44   23   47 1
    45   24   25 ar
    46   24   48 1
    47   25   49 1
    48   26   50 1
    49   27   32 ar
    50   27   28 ar
    51   28   29 ar
    52   28   51 1
    53   29   30 ar
    54   29   52 1
    55   30   31 ar
    56   30   33 1
    57   31   32 ar
    58   31   53 1
    59   32   54 1
@<TRIPOS>MOLECULE
CHEMBL197552
   65    69     0     0     0
SMALL
USER_CHARGES

@<TRIPOS>ATOM
      1 C1         -2.9741   -1.0334   -0.7307 C.3       1 <0>        -0.1824
      2 C2         -1.7605   -0.3491   -1.3629 C.3       1 <0>        -0.0225
      3 C3         -2.0679    1.1335   -1.5828 C.3       1 <0>        -0.1265
      4 C4         -0.5545   -0.4872   -0.4315 C.3       1 <0>        -0.0979
      5 C5         -0.7732    0.3704    0.8165 C.3       1 <0>         0.1349
      6 C6          0.4726    0.3085    1.7026 C.3       1 <0>        -0.0992
      7 C7          1.6849    0.6884    0.8921 C.ar      1 <0>        -0.0742
      8 C8          2.4040   -0.3030    0.2267 C.ar      1 <0>        -0.1117
      9 C9          3.5035    0.0061   -0.5133 C.ar      1 <0>        -0.1030
     10 C10         3.9227    1.3439   -0.6105 C.ar      1 <0>        -0.0510
     11 C11         5.0528    1.7018   -1.3655 C.ar      1 <0>        -0.1069
     12 C12         5.4288    3.0078   -1.4371 C.ar      1 <0>        -0.1159
     13 C13         4.7096    3.9991   -0.7719 C.ar      1 <0>        -0.1157
     14 C14         3.6103    3.6899   -0.0316 C.ar      1 <0>        -0.1062
     15 C15         3.1914    2.3520    0.0658 C.ar      1 <0>        -0.0489
     16 C16         2.0581    1.9949    0.8163 C.ar      1 <0>        -0.0863
     17 C17        -1.9612   -0.1515    1.5829 C.2       1 <0>         0.5039
     18 O1         -1.8570   -1.1580    2.2513 O.2       1 <0>        -0.4977
     19 N1         -3.1395    0.5003    1.5254 N.am      1 <0>        -0.6675
     20 C18        -4.2079    0.0799    2.3161 C.ar      1 <0>         0.1905
     21 C19        -3.9677   -0.4900    3.5629 C.ar      1 <0>        -0.1328
     22 C20        -5.0183   -0.9072    4.3486 C.ar      1 <0>        -0.0078
     23 C21        -6.3305   -0.7576    3.8920 C.ar      1 <0>        -0.2143
     24 C22        -6.5647   -0.1835    2.6369 C.ar      1 <0>        -0.0781
     25 C23        -5.5145    0.2360    1.8597 C.ar      1 <0>        -0.1289
     26 C24        -8.0613   -0.1699    2.4546 C.3       1 <0>         0.0911
     27 O2         -8.6245   -0.7474    3.6355 O.3       1 <0>        -0.3145
     28 C25        -7.6377   -1.0937    4.4791 C.2       1 <0>         0.5229
     29 O3         -7.8006   -1.6085    5.5676 O.2       1 <0>        -0.4485
     30 O4         -1.0144    1.7243    0.4279 O.3       1 <0>        -0.5282
     31 C26        -1.4500   -0.9994   -2.6864 C.ar      1 <0>        -0.0658
     32 C27        -0.2217   -1.5999   -2.8903 C.ar      1 <0>        -0.1232
     33 C28         0.0631   -2.1964   -4.1043 C.ar      1 <0>        -0.1159
     34 C29        -0.8806   -2.1929   -5.1144 C.ar      1 <0>        -0.1254
     35 C30        -2.1093   -1.5932   -4.9103 C.ar      1 <0>        -0.1172
     36 C31        -2.3956   -1.0004   -3.6947 C.ar      1 <0>        -0.1161
     37 H1         -3.7001   -1.2753   -1.5069 H         1 <0>         0.0604
     38 H2         -2.6562   -1.9492   -0.2324 H         1 <0>         0.0562
     39 H3         -3.4307   -0.3631   -0.0024 H         1 <0>         0.0830
     40 H4         -2.7901    1.4690   -0.8385 H         1 <0>         0.0512
     41 H5         -1.1500    1.7132   -1.4857 H         1 <0>         0.0852
     42 H6         -2.4828    1.2744   -2.5809 H         1 <0>         0.0485
     43 H7         -0.4386   -1.5309   -0.1394 H         1 <0>         0.0860
     44 H8          0.3446   -0.1528   -0.9492 H         1 <0>         0.0994
     45 H9          0.3606    1.0022    2.5359 H         1 <0>         0.0824
     46 H10         0.5951   -0.7042    2.0869 H         1 <0>         0.0986
     47 H11         2.0839   -1.3319    0.2996 H         1 <0>         0.1227
     48 H12         4.0513   -0.7728   -1.0230 H         1 <0>         0.1274
     49 H13         5.6200    0.9443   -1.8860 H         1 <0>         0.1264
     50 H14         6.2978    3.2800   -2.0177 H         1 <0>         0.1230
     51 H15         5.0296    5.0280   -0.8448 H         1 <0>         0.1229
     52 H16         3.0630    4.4687    0.4788 H         1 <0>         0.1261
     53 H17         1.4885    2.7530    1.3334 H         1 <0>         0.1249
     54 H18        -3.2441    1.2618    0.9338 H         1 <0>         0.4209
     55 H19        -2.9533   -0.6057    3.9152 H         1 <0>         0.1497
     56 H20        -4.8289   -1.3494    5.3155 H         1 <0>         0.1421
     57 H21        -5.7005    0.6826    0.8941 H         1 <0>         0.1404
     58 H22        -8.4133    0.8549    2.3361 H         1 <0>         0.1190
     59 H23        -8.3362   -0.7624    1.5820 H         1 <0>         0.1185
     60 H24        -1.1620    2.3262    1.1702 H         1 <0>         0.3678
     61 H25         0.5157   -1.6026   -2.1011 H         1 <0>         0.1232
     62 H26         1.0231   -2.6649   -4.2638 H         1 <0>         0.1207
     63 H27        -0.6578   -2.6583   -6.0632 H         1 <0>         0.1202
     64 H28        -2.8465   -1.5902   -5.6995 H         1 <0>         0.1207
     65 H29        -3.3570   -0.5352   -3.5340 H         1 <0>         0.1199
@<TRIPOS>BOND
     1    1    2 1
     2    1   37 1
     3    1   38 1
     4    1   39 1
     5    2    3 1
     6    2    4 1
     7    2   31 1
     8    3   40 1
     9    3   41 1
    10    3   42 1
    11    4    5 1
    12    4   43 1
    13    4   44 1
    14    5    6 1
    15    5   17 1
    16    5   30 1
    17    6    7 1
    18    6   45 1
    19    6   46 1
    20    7   16 ar
    21    7    8 ar
    22    8    9 ar
    23    8   47 1
    24    9   10 ar
    25    9   48 1
    26   10   15 ar
    27   10   11 ar
    28   11   12 ar
    29   11   49 1
    30   12   13 ar
    31   12   50 1
    32   13   14 ar
    33   13   51 1
    34   14   15 ar
    35   14   52 1
    36   15   16 ar
    37   16   53 1
    38   17   18 2
    39   17   19 am
    40   19   20 1
    41   19   54 1
    42   20   25 ar
    43   20   21 ar
    44   21   22 ar
    45   21   55 1
    46   22   23 ar
    47   22   56 1
    48   23   28 1
    49   23   24 ar
    50   24   25 ar
    51   24   26 1
    52   25   57 1
    53   26   27 1
    54   26   58 1
    55   26   59 1
    56   27   28 1
    57   28   29 2
    58   30   60 1
    59   31   36 ar
    60   31   32 ar
    61   32   33 ar
    62   32   61 1
    63   33   34 ar
    64   33   62 1
    65   34   35 ar
    66   34   63 1
    67   35   36 ar
    68   35   64 1
    69   36   65 1
@<TRIPOS>MOLECULE
CHEMBL197552__1
   65    69     0     0     0
SMALL
USER_CHARGES

@<TRIPOS>ATOM
      1 C1         -0.8451   -1.0547   -0.3812 C.3       1 <0>        -0.1249
      2 C2         -1.7896   -2.1463    0.1262 C.3       1 <0>        -0.0211
      3 C3         -1.1339   -2.8854    1.2944 C.3       1 <0>        -0.1775
      4 C4         -3.0991   -1.5097    0.5960 C.3       1 <0>        -0.0953
      5 C5         -2.7959   -0.4228    1.6293 C.3       1 <0>         0.1368
      6 C6         -4.1036    0.2312    2.0802 C.3       1 <0>        -0.1016
      7 C7         -4.8525    0.7397    0.8753 C.ar      1 <0>        -0.0708
      8 C8         -4.6218    2.0369    0.4208 C.ar      1 <0>        -0.0986
      9 C9         -5.2816    2.5270   -0.6639 C.ar      1 <0>        -0.1031
     10 C10        -6.2097    1.7155   -1.3385 C.ar      1 <0>        -0.0508
     11 C11        -6.9098    2.1863   -2.4624 C.ar      1 <0>        -0.1072
     12 C12        -7.8009    1.3718   -3.0906 C.ar      1 <0>        -0.1155
     13 C13        -8.0313    0.0745   -2.6363 C.ar      1 <0>        -0.1148
     14 C14        -7.3719   -0.4154   -1.5513 C.ar      1 <0>        -0.1071
     15 C15        -6.4440    0.3963   -0.8765 C.ar      1 <0>        -0.0487
     16 C16        -5.7398   -0.0766    0.2440 C.ar      1 <0>        -0.1013
     17 C17        -2.1062   -1.0392    2.8190 C.2       1 <0>         0.5078
     18 O1         -2.6736   -1.8843    3.4782 O.2       1 <0>        -0.5014
     19 N1         -0.8588   -0.6512    3.1504 N.am      1 <0>        -0.6777
     20 C18        -0.2064   -1.2479    4.2283 C.ar      1 <0>         0.1882
     21 C19        -0.3096   -2.6212    4.4293 C.ar      1 <0>        -0.1280
     22 C20         0.3322   -3.2166    5.4918 C.ar      1 <0>        -0.0107
     23 C21         1.0897   -2.4386    6.3712 C.ar      1 <0>        -0.2090
     24 C22         1.1891   -1.0579    6.1630 C.ar      1 <0>        -0.0826
     25 C23         0.5523   -0.4698    5.0993 C.ar      1 <0>        -0.1223
     26 C24         2.0641   -0.5286    7.2709 C.3       1 <0>         0.0914
     27 O2          2.4317   -1.6516    8.0766 O.3       1 <0>        -0.3141
     28 C25         1.8769   -2.7660    7.5711 C.2       1 <0>         0.5226
     29 O3          2.0063   -3.8811    8.0363 O.2       1 <0>        -0.4474
     30 O4         -1.9455    0.5659    1.0451 O.3       1 <0>        -0.5296
     31 C26        -2.0757   -3.1204   -0.9875 C.ar      1 <0>        -0.0663
     32 C27        -3.3735   -3.3083   -1.4249 C.ar      1 <0>        -0.1222
     33 C28        -3.6360   -4.2019   -2.4464 C.ar      1 <0>        -0.1159
     34 C29        -2.6007   -4.9073   -3.0308 C.ar      1 <0>        -0.1253
     35 C30        -1.3028   -4.7187   -2.5940 C.ar      1 <0>        -0.1171
     36 C31        -1.0398   -3.8219   -1.5754 C.ar      1 <0>        -0.1156
     37 H1         -0.1040   -1.4964   -1.0473 H         1 <0>         0.0464
     38 H2         -1.4177   -0.3019   -0.9229 H         1 <0>         0.0678
     39 H3         -0.3409   -0.5883    0.4651 H         1 <0>         0.0639
     40 H4         -0.7376   -2.1611    2.0061 H         1 <0>         0.0786
     41 H5         -1.8752   -3.5129    1.7893 H         1 <0>         0.0619
     42 H6         -0.3219   -3.5088    0.9201 H         1 <0>         0.0610
     43 H7         -3.6143   -1.0670   -0.2565 H         1 <0>         0.0977
     44 H8         -3.7329   -2.2732    1.0471 H         1 <0>         0.0884
     45 H9         -4.7150   -0.5030    2.6048 H         1 <0>         0.0968
     46 H10        -3.8820    1.0635    2.7482 H         1 <0>         0.0828
     47 H11        -3.9090    2.6626    0.9373 H         1 <0>         0.1212
     48 H12        -5.0931    3.5345   -1.0044 H         1 <0>         0.1268
     49 H13        -6.7417    3.1895   -2.8256 H         1 <0>         0.1265
     50 H14        -8.3378    1.7363   -3.9539 H         1 <0>         0.1230
     51 H15        -8.7441   -0.5512   -3.1527 H         1 <0>         0.1231
     52 H16        -7.5609   -1.4226   -1.2103 H         1 <0>         0.1264
     53 H17        -5.9049   -1.0811    0.6047 H         1 <0>         0.1261
     54 H18        -0.4149    0.0433    2.6389 H         1 <0>         0.4170
     55 H19        -0.8955   -3.2219    3.7494 H         1 <0>         0.1485
     56 H20         0.2500   -4.2824    5.6454 H         1 <0>         0.1424
     57 H21         0.6359    0.5952    4.9402 H         1 <0>         0.1407
     58 H22         2.9558   -0.0625    6.8516 H         1 <0>         0.1190
     59 H23         1.5110    0.1950    7.8697 H         1 <0>         0.1184
     60 H24        -1.7117    1.2875    1.6448 H         1 <0>         0.3688
     61 H25        -4.1824   -2.7573   -0.9684 H         1 <0>         0.1226
     62 H26        -4.6500   -4.3492   -2.7877 H         1 <0>         0.1205
     63 H27        -2.8059   -5.6059   -3.8284 H         1 <0>         0.1201
     64 H28        -0.4940   -5.2700   -3.0503 H         1 <0>         0.1207
     65 H29        -0.0253   -3.6719   -1.2366 H         1 <0>         0.1196
@<TRIPOS>BOND
     1    1    2 1
     2    1   37 1
     3    1   38 1
     4    1   39 1
     5    2    3 1
     6    2    4 1
     7    2   31 1
     8    3   40 1
     9    3   41 1
    10    3   42 1
    11    4    5 1
    12    4   43 1
    13    4   44 1
    14    5    6 1
    15    5   17 1
    16    5   30 1
    17    6    7 1
    18    6   45 1
    19    6   46 1
    20    7   16 ar
    21    7    8 ar
    22    8    9 ar
    23    8   47 1
    24    9   10 ar
    25    9   48 1
    26   10   15 ar
    27   10   11 ar
    28   11   12 ar
    29   11   49 1
    30   12   13 ar
    31   12   50 1
    32   13   14 ar
    33   13   51 1
    34   14   15 ar
    35   14   52 1
    36   15   16 ar
    37   16   53 1
    38   17   18 2
    39   17   19 am
    40   19   20 1
    41   19   54 1
    42   20   25 ar
    43   20   21 ar
    44   21   22 ar
    45   21   55 1
    46   22   23 ar
    47   22   56 1
    48   23   28 1
    49   23   24 ar
    50   24   25 ar
    51   24   26 1
    52   25   57 1
    53   26   27 1
    54   26   58 1
    55   26   59 1
    56   27   28 1
    57   28   29 2
    58   30   60 1
    59   31   36 ar
    60   31   32 ar
    61   32   33 ar
    62   32   61 1
    63   33   34 ar
    64   33   62 1
    65   34   35 ar
    66   34   63 1
    67   35   36 ar
    68   35   64 1
    69   36   65 1
@<TRIPOS>MOLECULE
CHEMBL373497
   55    58     0     0     0
SMALL
USER_CHARGES

@<TRIPOS>ATOM
      1 C1          0.8190   -0.1991    0.9676 C.3       1 <0>        -0.1552
      2 C2         -0.2014   -0.4401   -0.1467 C.3       1 <0>        -0.0171
      3 C3          0.1592   -1.7222   -0.8999 C.3       1 <0>        -0.1354
      4 C4         -1.5978   -0.5821    0.4624 C.3       1 <0>        -0.1512
      5 C5         -1.7228    0.3451    1.6730 C.3       1 <0>         0.0784
      6 C6         -3.0740    0.1163    2.3533 C.3       1 <0>         0.0628
      7 N1         -3.2437    1.0842    3.4398 N.pl3     1 <0>        -0.4992
      8 C7         -2.6746    0.8329    4.6435 C.2       1 <0>         0.1844
      9 C8         -2.7875    1.6773    5.6897 C.2       1 <0>        -0.3121
     10 C9         -3.5222    2.8787    5.5558 C.2       1 <0>         0.4175
     11 O1         -3.6361    3.6555    6.4897 O.2       1 <0>        -0.4974
     12 C10        -4.1449    3.1609    4.2505 C.ar      1 <0>        -0.1966
     13 C11        -3.9730    2.2295    3.2112 C.ar      1 <0>         0.2068
     14 C12        -4.5494    2.4801    1.9695 C.ar      1 <0>        -0.1909
     15 C13        -5.2737    3.6360    1.7739 C.ar      1 <0>        -0.0503
     16 C14        -5.4348    4.5538    2.8022 C.ar      1 <0>        -0.1613
     17 C15        -4.8865    4.3216    4.0331 C.ar      1 <0>        -0.0280
     18 C16        -1.6235    1.8009    1.2128 C.3       1 <0>         0.4641
     19 F1         -2.5960    2.0493    0.2382 F         1 <0>        -0.1683
     20 F2         -1.8301    2.6504    2.3050 F         1 <0>        -0.1675
     21 F3         -0.3535    2.0342    0.6743 F         1 <0>        -0.1475
     22 O2         -0.6702    0.0652    2.5981 O.3       1 <0>        -0.5190
     23 C17        -0.1863    0.7250   -1.1023 C.ar      1 <0>        -0.0766
     24 C18        -1.3569    1.1319   -1.7087 C.ar      1 <0>        -0.1081
     25 C19        -1.3542    2.1995   -2.5870 C.ar      1 <0>        -0.1366
     26 C20        -0.1696    2.8602   -2.8617 C.ar      1 <0>        -0.0793
     27 C21         1.0003    2.4540   -2.2599 C.ar      1 <0>        -0.1699
     28 C22         1.0080    1.3907   -1.3657 C.ar      1 <0>         0.1182
     29 O3          2.2563    1.1751   -0.8671 O.3       1 <0>        -0.2923
     30 C23         3.2243    1.7973   -1.7290 C.3       1 <0>         0.0455
     31 C24         2.4270    2.9573   -2.3641 C.3       1 <0>        -0.1114
     32 H1          1.8218   -0.1686    0.5415 H         1 <0>         0.0620
     33 H2          0.6037    0.7500    1.4583 H         1 <0>         0.0970
     34 H3          0.7584   -1.0071    1.6967 H         1 <0>         0.0527
     35 H4          0.0624   -2.5766   -0.2300 H         1 <0>         0.0599
     36 H5         -0.5144   -1.8471   -1.7477 H         1 <0>         0.0560
     37 H6          1.1863   -1.6562   -1.2586 H         1 <0>         0.0612
     38 H7         -2.3477   -0.3120   -0.2811 H         1 <0>         0.0978
     39 H8         -1.7536   -1.6139    0.7774 H         1 <0>         0.0986
     40 H9         -3.8741    0.2445    1.6242 H         1 <0>         0.1180
     41 H10        -3.1101   -0.8949    2.7585 H         1 <0>         0.1193
     42 H11        -2.1092   -0.0784    4.7704 H         1 <0>         0.1586
     43 H12        -2.3164    1.4354    6.6310 H         1 <0>         0.1501
     44 H13        -4.4293    1.7721    1.1629 H         1 <0>         0.1349
     45 H14        -5.7203    3.8298    0.8098 H         1 <0>         0.1313
     46 H15        -6.0054    5.4548    2.6313 H         1 <0>         0.1302
     47 H16        -5.0164    5.0397    4.8293 H         1 <0>         0.1378
     48 H17        -0.6714   -0.8422    2.9323 H         1 <0>         0.3891
     49 H18        -2.2802    0.6134   -1.4964 H         1 <0>         0.1315
     50 H19        -2.2733    2.5166   -3.0574 H         1 <0>         0.1261
     51 H20        -0.1629    3.6943   -3.5477 H         1 <0>         0.1220
     52 H21         4.0694    2.1735   -1.1524 H         1 <0>         0.1057
     53 H22         3.5595    1.1020   -2.4986 H         1 <0>         0.0745
     54 H23         2.7107    3.1110   -3.4052 H         1 <0>         0.0908
     55 H24         2.5606    3.8719   -1.7863 H         1 <0>         0.0887
@<TRIPOS>BOND
     1    1    2 1
     2    1   32 1
     3    1   33 1
     4    1   34 1
     5    2    3 1
     6    2    4 1
     7    2   23 1
     8    3   35 1
     9    3   36 1
    10    3   37 1
    11    4    5 1
    12    4   38 1
    13    4   39 1
    14    5    6 1
    15    5   18 1
    16    5   22 1
    17    6    7 1
    18    6   40 1
    19    6   41 1
    20    7   13 1
    21    7    8 1
    22    8    9 2
    23    8   42 1
    24    9   10 1
    25    9   43 1
    26   10   11 2
    27   10   12 1
    28   12   17 ar
    29   12   13 ar
    30   13   14 ar
    31   14   15 ar
    32   14   44 1
    33   15   16 ar
    34   15   45 1
    35   16   17 ar
    36   16   46 1
    37   17   47 1
    38   18   19 1
    39   18   20 1
    40   18   21 1
    41   22   48 1
    42   23   28 ar
    43   23   24 ar
    44   24   25 ar
    45   24   49 1
    46   25   26 ar
    47   25   50 1
    48   26   27 ar
    49   26   51 1
    50   27   31 1
    51   27   28 ar
    52   28   29 1
    53   29   30 1
    54   30   31 1
    55   30   52 1
    56   30   53 1
    57   31   54 1
    58   31   55 1
@<TRIPOS>MOLECULE
CHEMBL373497__1
   55    58     0     0     0
SMALL
USER_CHARGES

@<TRIPOS>ATOM
      1 C1          0.1730    0.5198   -1.5691 C.3       1 <0>        -0.1374
      2 C2         -0.0920    0.6172   -0.0654 C.3       1 <0>        -0.0158
      3 C3         -0.1049    2.0879    0.3560 C.3       1 <0>        -0.1563
      4 C4         -1.4467   -0.0173    0.2558 C.3       1 <0>        -0.1545
      5 C5         -2.0437    0.6545    1.4941 C.3       1 <0>         0.0782
      6 C6         -3.4421    0.0914    1.7555 C.3       1 <0>         0.0624
      7 N1         -4.0137    0.7346    2.9412 N.pl3     1 <0>        -0.4985
      8 C7         -3.7991    0.1834    4.1602 C.2       1 <0>         0.1794
      9 C8         -4.2929    0.7192    5.2957 C.2       1 <0>        -0.3110
     10 C9         -5.0685    1.9010    5.2437 C.2       1 <0>         0.4180
     11 O1         -5.5240    2.4012    6.2590 O.2       1 <0>        -0.4960
     12 C10        -5.3075    2.5081    3.9226 C.ar      1 <0>        -0.1963
     13 C11        -4.7511    1.8876    2.7899 C.ar      1 <0>         0.2083
     14 C12        -4.9615    2.4480    1.5337 C.ar      1 <0>        -0.1787
     15 C13        -5.7048    3.6025    1.4169 C.ar      1 <0>        -0.0530
     16 C14        -6.2464    4.2130    2.5393 C.ar      1 <0>        -0.1601
     17 C15        -6.0613    3.6726    3.7817 C.ar      1 <0>        -0.0263
     18 C16        -1.1489    0.3801    2.7045 C.3       1 <0>         0.4607
     19 F1          0.1463    0.8381    2.4403 F         1 <0>        -0.1418
     20 F2         -1.6602    1.0469    3.8230 F         1 <0>        -0.1651
     21 F3         -1.1147   -0.9955    2.9568 F         1 <0>        -0.1718
     22 O2         -2.1309    2.0640    1.2759 O.3       1 <0>        -0.5142
     23 C17         0.9940   -0.1107    0.6842 C.ar      1 <0>        -0.0638
     24 C18         0.6959   -1.2672    1.3750 C.ar      1 <0>        -0.1291
     25 C19         1.6845   -1.9427    2.0661 C.ar      1 <0>        -0.1334
     26 C20         2.9788   -1.4529    2.0676 C.ar      1 <0>        -0.0826
     27 C21         3.2780   -0.2973    1.3812 C.ar      1 <0>        -0.1655
     28 C22         2.2958    0.3833    0.6725 C.ar      1 <0>         0.1070
     29 O3          2.8089    1.4778    0.0464 O.3       1 <0>        -0.2979
     30 C23         4.0617    1.8293    0.6580 C.3       1 <0>         0.0500
     31 C24         4.5695    0.4783    1.2072 C.3       1 <0>        -0.1120
     32 H1          1.0950    1.0488   -1.8106 H         1 <0>         0.0671
     33 H2          0.2700   -0.5279   -1.8539 H         1 <0>         0.0549
     34 H3         -0.6571    0.9691   -2.1142 H         1 <0>         0.0589
     35 H4         -0.9139    2.6063   -0.1586 H         1 <0>         0.0574
     36 H5         -0.2570    2.1559    1.4332 H         1 <0>         0.0944
     37 H6          0.8471    2.5494    0.0937 H         1 <0>         0.0542
     38 H7         -2.1204    0.1165   -0.5905 H         1 <0>         0.0996
     39 H8         -1.3128   -1.0817    0.4489 H         1 <0>         0.1003
     40 H9         -4.0795    0.2869    0.8932 H         1 <0>         0.1220
     41 H10        -3.3756   -0.9838    1.9219 H         1 <0>         0.1169
     42 H11        -3.2104   -0.7197    4.2253 H         1 <0>         0.1548
     43 H12        -4.0960    0.2448    6.2457 H         1 <0>         0.1505
     44 H13        -4.5438    1.9805    0.6543 H         1 <0>         0.1258
     45 H14        -5.8673    4.0370    0.4416 H         1 <0>         0.1320
     46 H15        -6.8261    5.1176    2.4297 H         1 <0>         0.1302
     47 H16        -6.4863    4.1524    4.6510 H         1 <0>         0.1379
     48 H17        -2.6838    2.3119    0.5223 H         1 <0>         0.3875
     49 H18        -0.3153   -1.6467    1.3762 H         1 <0>         0.1421
     50 H19         1.4475   -2.8492    2.6032 H         1 <0>         0.1262
     51 H20         3.7541   -1.9771    2.6066 H         1 <0>         0.1223
     52 H21         4.7521    2.2348   -0.0815 H         1 <0>         0.1062
     53 H22         3.9085    2.5362    1.4734 H         1 <0>         0.0751
     54 H23         5.0798    0.6042    2.1621 H         1 <0>         0.0913
     55 H24         5.2205   -0.0074    0.4803 H         1 <0>         0.0893
@<TRIPOS>BOND
     1    1    2 1
     2    1   32 1
     3    1   33 1
     4    1   34 1
     5    2    3 1
     6    2    4 1
     7    2   23 1
     8    3   35 1
     9    3   36 1
    10    3   37 1
    11    4    5 1
    12    4   38 1
    13    4   39 1
    14    5    6 1
    15    5   18 1
    16    5   22 1
    17    6    7 1
    18    6   40 1
    19    6   41 1
    20    7   13 1
    21    7    8 1
    22    8    9 2
    23    8   42 1
    24    9   10 1
    25    9   43 1
    26   10   11 2
    27   10   12 1
    28   12   17 ar
    29   12   13 ar
    30   13   14 ar
    31   14   15 ar
    32   14   44 1
    33   15   16 ar
    34   15   45 1
    35   16   17 ar
    36   16   46 1
    37   17   47 1
    38   18   19 1
    39   18   20 1
    40   18   21 1
    41   22   48 1
    42   23   28 ar
    43   23   24 ar
    44   24   25 ar
    45   24   49 1
    46   25   26 ar
    47   25   50 1
    48   26   27 ar
    49   26   51 1
    50   27   31 1
    51   27   28 ar
    52   28   29 1
    53   29   30 1
    54   30   31 1
    55   30   52 1
    56   30   53 1
    57   31   54 1
    58   31   55 1
@<TRIPOS>MOLECULE
CHEMBL220023
   52    53     0     0     0
SMALL
USER_CHARGES

@<TRIPOS>ATOM
      1 C1         -0.8647    0.0718    3.2609 C.3       1 <0>        -0.1007
      2 C2         -0.6089   -1.2707    2.6257 C.2       1 <0>         0.0404
      3 C3         -0.6433   -1.5416    1.3070 C.2       1 <0>         0.0284
      4 N1         -0.3534   -2.8722    1.1684 N.pl3     1 <0>        -0.4084
      5 C4         -0.1518   -3.3683    2.4081 C.cat     1 <0>         0.3260
      6 N2         -0.3013   -2.4037    3.2743 N.pl3     1 <0>        -0.4737
      7 C5          0.1942   -4.7978    2.7365 C.3       1 <0>        -0.1127
      8 C6         -0.2763   -3.6186   -0.0898 C.3       1 <0>         0.0595
      9 C7         -1.6324   -4.2630   -0.3845 C.3       1 <0>         0.0797
     10 C8         -1.5343   -5.0947   -1.6649 C.3       1 <0>        -0.1556
     11 C9         -2.8410   -5.8620   -1.8759 C.3       1 <0>        -0.0108
     12 C10        -2.5581   -7.1453   -2.6595 C.3       1 <0>        -0.1389
     13 C11        -3.4488   -6.2174   -0.5176 C.3       1 <0>        -0.1504
     14 C12        -3.8082   -5.0038   -2.6499 C.ar      1 <0>        -0.0539
     15 C13        -3.3385   -3.9659   -3.4318 C.ar      1 <0>        -0.1550
     16 C14        -4.2266   -3.1776   -4.1433 C.ar      1 <0>         0.0781
     17 C15        -5.5867   -3.4277   -4.0722 C.ar      1 <0>        -0.1229
     18 C16        -6.0590   -4.4646   -3.2913 C.ar      1 <0>        -0.1661
     19 C17        -5.1697   -5.2589   -2.5823 C.ar      1 <0>         0.1184
     20 O1         -5.6328   -6.2833   -1.8179 O.3       1 <0>        -0.2986
     21 C18        -7.0469   -6.4881   -1.7952 C.3       1 <0>         0.0151
     22 F1         -3.7659   -2.1632   -4.9074 F         1 <0>        -0.1375
     23 C19        -2.6877   -3.1701   -0.5657 C.3       1 <0>         0.4590
     24 F2         -2.2760   -2.2861   -1.5688 F         1 <0>        -0.1665
     25 F3         -3.9058   -3.7539   -0.9298 F         1 <0>        -0.1326
     26 F4         -2.8462   -2.4711    0.6357 F         1 <0>        -0.1788
     27 O2         -2.0048   -5.1087    0.7055 O.3       1 <0>        -0.5158
     28 H1          0.0730    0.6223    3.3372 H         1 <0>         0.1009
     29 H2         -1.5682    0.6355    2.6482 H         1 <0>         0.1064
     30 H3         -1.2839   -0.0715    4.2569 H         1 <0>         0.0913
     31 H4         -0.8587   -0.8434    0.5117 H         1 <0>         0.2192
     32 H5          1.2741   -4.8935    2.8497 H         1 <0>         0.1238
     33 H6         -0.2955   -5.0857    3.6668 H         1 <0>         0.1233
     34 H7         -0.1457   -5.4483    1.9307 H         1 <0>         0.1057
     35 H8         -0.0134   -2.9386   -0.9001 H         1 <0>         0.1468
     36 H9          0.4842   -4.3949   -0.0057 H         1 <0>         0.1452
     37 H10        -1.3594   -4.4346   -2.5144 H         1 <0>         0.1053
     38 H11        -0.7085   -5.8007   -1.5772 H         1 <0>         0.1076
     39 H12        -1.9294   -7.8051   -2.0615 H         1 <0>         0.0637
     40 H13        -3.4986   -7.6472   -2.8867 H         1 <0>         0.0693
     41 H14        -2.0446   -6.8980   -3.5886 H         1 <0>         0.0590
     42 H15        -3.7538   -5.3046   -0.0059 H         1 <0>         0.0810
     43 H16        -4.3176   -6.8590   -0.6649 H         1 <0>         0.0788
     44 H17        -2.7080   -6.7420    0.0859 H         1 <0>         0.0577
     45 H18        -2.2780   -3.7694   -3.4876 H         1 <0>         0.1408
     46 H19        -6.2785   -2.8115   -4.6272 H         1 <0>         0.1397
     47 H20        -7.1199   -4.6592   -3.2358 H         1 <0>         0.1403
     48 H21        -7.2811   -7.3342   -1.1492 H         1 <0>         0.1035
     49 H22        -7.5376   -5.5928   -1.4136 H         1 <0>         0.0565
     50 H23        -7.4004   -6.6936   -2.8056 H         1 <0>         0.0582
     51 H24        -1.3602   -5.8018    0.9036 H         1 <0>         0.3892
     52 H25        -0.2068   -2.4925    4.2356 H         1 <0>         0.4610
@<TRIPOS>BOND
     1    1    2 1
     2    1   28 1
     3    1   29 1
     4    1   30 1
     5    2    6 1
     6    2    3 2
     7    3    4 1
     8    3   31 1
     9    4    5 1
    10    4    8 1
    11    5    6 2
    12    5    7 1
    13    6   52 1
    14    7   32 1
    15    7   33 1
    16    7   34 1
    17    8    9 1
    18    8   35 1
    19    8   36 1
    20    9   10 1
    21    9   23 1
    22    9   27 1
    23   10   11 1
    24   10   37 1
    25   10   38 1
    26   11   12 1
    27   11   13 1
    28   11   14 1
    29   12   39 1
    30   12   40 1
    31   12   41 1
    32   13   42 1
    33   13   43 1
    34   13   44 1
    35   14   19 ar
    36   14   15 ar
    37   15   16 ar
    38   15   45 1
    39   16   17 ar
    40   16   22 1
    41   17   18 ar
    42   17   46 1
    43   18   19 ar
    44   18   47 1
    45   19   20 1
    46   20   21 1
    47   21   48 1
    48   21   49 1
    49   21   50 1
    50   23   24 1
    51   23   25 1
    52   23   26 1
    53   27   51 1
@<TRIPOS>MOLECULE
CHEMBL220023__1
   52    53     0     0     0
SMALL
USER_CHARGES

@<TRIPOS>ATOM
      1 C1         -1.9906    1.4347   -5.4974 C.3       1 <0>        -0.0997
      2 C2         -1.3936    0.4495   -4.5257 C.2       1 <0>         0.0357
      3 C3         -1.2809   -0.8791   -4.7145 C.2       1 <0>         0.0319
      4 N1         -0.6852   -1.3894   -3.5928 N.pl3     1 <0>        -0.4183
      5 C4         -0.4544   -0.3542   -2.7569 C.cat     1 <0>         0.3357
      6 N2         -0.8761    0.7431   -3.3236 N.pl3     1 <0>        -0.4761
      7 C5          0.1888   -0.4495   -1.3974 C.3       1 <0>        -0.1682
      8 C6         -0.3588   -2.7960   -3.3453 C.3       1 <0>         0.0621
      9 C7         -1.5543   -3.4889   -2.6883 C.3       1 <0>         0.0810
     10 C8         -1.1357   -4.8789   -2.2049 C.3       1 <0>        -0.1553
     11 C9         -2.3743   -5.6576   -1.7574 C.3       1 <0>        -0.0074
     12 C10        -3.5349   -5.3606   -2.7091 C.3       1 <0>        -0.1459
     13 C11        -2.0691   -7.1567   -1.7776 C.3       1 <0>        -0.1416
     14 C12        -2.7519   -5.2407   -0.3593 C.ar      1 <0>        -0.0668
     15 C13        -1.9265   -4.3947    0.3563 C.ar      1 <0>        -0.2015
     16 C14        -2.2732   -4.0111    1.6404 C.ar      1 <0>         0.0650
     17 C15        -3.4473   -4.4748    2.2097 C.ar      1 <0>        -0.1183
     18 C16        -4.2743   -5.3206    1.4965 C.ar      1 <0>        -0.1704
     19 C17        -3.9309   -5.7013    0.2074 C.ar      1 <0>         0.1218
     20 O1         -4.7467   -6.5291   -0.4976 O.3       1 <0>        -0.3045
     21 C18        -5.9446   -6.9644    0.1486 C.3       1 <0>         0.0200
     22 F1         -1.4652   -3.1839    2.3390 F         1 <0>        -0.1399
     23 C19        -2.0340   -2.6576   -1.4967 C.3       1 <0>         0.4612
     24 F2         -2.3554   -1.3662   -1.9283 F         1 <0>        -0.1786
     25 F3         -3.1666   -3.2572   -0.9356 F         1 <0>        -0.1238
     26 F4         -1.0186   -2.5893   -0.5368 F         1 <0>        -0.1447
     27 O2         -2.6138   -3.6142   -3.6390 O.3       1 <0>        -0.5131
     28 H1         -1.2111    1.8075   -6.1618 H         1 <0>         0.0997
     29 H2         -2.7642    0.9413   -6.0858 H         1 <0>         0.1063
     30 H3         -2.4282    2.2678   -4.9474 H         1 <0>         0.0899
     31 H4         -1.5996   -1.4351   -5.5838 H         1 <0>         0.2220
     32 H5          1.2543   -0.2363   -1.4838 H         1 <0>         0.1248
     33 H6         -0.2731    0.2738   -0.7254 H         1 <0>         0.1207
     34 H7          0.0506   -1.4549   -0.9997 H         1 <0>         0.1392
     35 H8         -0.1286   -3.2873   -4.2906 H         1 <0>         0.1521
     36 H9          0.5054   -2.8575   -2.6838 H         1 <0>         0.1397
     37 H10        -0.6444   -5.4136   -3.0178 H         1 <0>         0.1120
     38 H11        -0.4464   -4.7796   -1.3664 H         1 <0>         0.1023
     39 H12        -3.2148   -5.5317   -3.7370 H         1 <0>         0.0542
     40 H13        -4.3733   -6.0169   -2.4757 H         1 <0>         0.0684
     41 H14        -3.8434   -4.3217   -2.5928 H         1 <0>         0.0874
     42 H15        -1.3038   -7.3817   -1.0348 H         1 <0>         0.0580
     43 H16        -2.9759   -7.7153   -1.5457 H         1 <0>         0.0756
     44 H17        -1.7101   -7.4411   -2.7667 H         1 <0>         0.0626
     45 H18        -1.0101   -4.0329   -0.0862 H         1 <0>         0.1852
     46 H19        -3.7163   -4.1753    3.2119 H         1 <0>         0.1380
     47 H20        -5.1898   -5.6824    1.9409 H         1 <0>         0.1395
     48 H21        -6.5024   -7.6180   -0.5221 H         1 <0>         0.1046
     49 H22        -5.6896   -7.5090    1.0578 H         1 <0>         0.0582
     50 H23        -6.5554   -6.0983    0.4032 H         1 <0>         0.0570
     51 H24        -2.3801   -4.1304   -4.4226 H         1 <0>         0.4020
     52 H25        -0.8252    1.6308   -2.9358 H         1 <0>         0.4603
@<TRIPOS>BOND
     1    1    2 1
     2    1   28 1
     3    1   29 1
     4    1   30 1
     5    2    6 1
     6    2    3 2
     7    3    4 1
     8    3   31 1
     9    4    5 1
    10    4    8 1
    11    5    6 2
    12    5    7 1
    13    6   52 1
    14    7   32 1
    15    7   33 1
    16    7   34 1
    17    8    9 1
    18    8   35 1
    19    8   36 1
    20    9   10 1
    21    9   23 1
    22    9   27 1
    23   10   11 1
    24   10   37 1
    25   10   38 1
    26   11   12 1
    27   11   13 1
    28   11   14 1
    29   12   39 1
    30   12   40 1
    31   12   41 1
    32   13   42 1
    33   13   43 1
    34   13   44 1
    35   14   19 ar
    36   14   15 ar
    37   15   16 ar
    38   15   45 1
    39   16   17 ar
    40   16   22 1
    41   17   18 ar
    42   17   46 1
    43   18   19 ar
    44   18   47 1
    45   19   20 1
    46   20   21 1
    47   21   48 1
    48   21   49 1
    49   21   50 1
    50   23   24 1
    51   23   25 1
    52   23   26 1
    53   27   51 1
@<TRIPOS>MOLECULE
CHEMBL572355
   62    66     0     0     0
SMALL
USER_CHARGES

@<TRIPOS>ATOM
      1 C1          1.5985    0.5926   -0.1492 C.3       1 <0>        -0.1726
      2 C2          1.2275   -0.8419   -0.5309 C.3       1 <0>        -0.0386
      3 C3         -0.1349   -1.1665    0.1010 C.3       1 <0>         0.0337
      4 N1         -0.1888   -2.2811    1.0558 N.pl3     1 <0>        -0.4041
      5 C4         -1.1942   -2.7916    1.7978 C.cat     1 <0>         0.2857
      6 N2         -0.7448   -3.7855    2.5130 N.pl3     1 <0>        -0.4628
      7 C5          0.5655   -3.9646    2.2635 C.2       1 <0>         0.0875
      8 C6          0.9420   -3.0127    1.3268 C.2       1 <0>         0.1145
      9 C7          2.2240   -2.7392    0.6760 C.2       1 <0>        -0.1422
     10 C8          2.3924   -1.7397   -0.1732 C.2       1 <0>        -0.0178
     11 C9          3.7229   -1.5012   -0.8442 C.3       1 <0>        -0.0901
     12 C10         3.5007   -1.4855   -2.3616 C.3       1 <0>        -0.1204
     13 C11         2.4012   -0.4793   -2.7049 C.3       1 <0>        -0.1245
     14 C12         1.0829   -0.8996   -2.0521 C.3       1 <0>        -0.1115
     15 H1          0.8352   -1.9168   -2.3553 H         1 <0>         0.0969
     16 C13        -0.0315    0.0506   -2.4950 C.3       1 <0>         0.1393
     17 C14         0.0941    0.3194   -3.9959 C.3       1 <0>        -0.1515
     18 C15        -1.3914   -0.5870   -2.2031 C.3       1 <0>        -0.1334
     19 C16        -1.2945   -2.1051   -2.3822 C.3       1 <0>        -0.1747
     20 C17        -2.6770   -2.7260   -2.1653 C.3       1 <0>         0.0600
     21 O1         -3.6072   -2.1464   -3.0823 O.3       1 <0>        -0.3717
     22 C18        -3.7745   -0.7353   -2.9301 C.3       1 <0>         0.0549
     23 C19        -2.4361   -0.0346   -3.1777 C.3       1 <0>        -0.1533
     24 O2          0.0805    1.2825   -1.7794 O.3       1 <0>        -0.5475
     25 C20         1.4434   -4.9881    2.8759 C.ar      1 <0>        -0.0764
     26 C21         2.7091   -4.6350    3.3442 C.ar      1 <0>        -0.0506
     27 C22         3.5230   -5.5920    3.9138 C.ar      1 <0>        -0.1474
     28 C23         3.0855   -6.9025    4.0207 C.ar      1 <0>         0.1378
     29 C24         1.8293   -7.2584    3.5566 C.ar      1 <0>        -0.1474
     30 C25         1.0052   -6.3074    2.9915 C.ar      1 <0>        -0.0633
     31 F1          3.8865   -7.8362    4.5789 F         1 <0>        -0.1224
     32 H2          1.8262    1.1612   -1.0508 H         1 <0>         0.1202
     33 H3          0.7618    1.0577    0.3721 H         1 <0>         0.0644
     34 H4          2.4716    0.5807    0.5032 H         1 <0>         0.0660
     35 H5         -0.4881   -0.2710    0.6122 H         1 <0>         0.1137
     36 H6         -0.8345   -1.3837   -0.7061 H         1 <0>         0.1660
     37 H7         -2.2128   -2.4325    1.7994 H         1 <0>         0.2610
     38 H8          3.0708   -3.3658    0.9144 H         1 <0>         0.1539
     39 H9          4.1301   -0.5426   -0.5225 H         1 <0>         0.0952
     40 H10         4.4151   -2.3015   -0.5824 H         1 <0>         0.0882
     41 H11         4.4256   -1.1977   -2.8614 H         1 <0>         0.0829
     42 H12         3.2012   -2.4790   -2.6953 H         1 <0>         0.0685
     43 H13         2.6870    0.5072   -2.3399 H         1 <0>         0.0827
     44 H14         2.2724   -0.4394   -3.7865 H         1 <0>         0.0853
     45 H15         0.0873   -0.6271   -4.5364 H         1 <0>         0.0741
     46 H16        -0.7441    0.9327   -4.3266 H         1 <0>         0.0766
     47 H17         1.0287    0.8442   -4.1941 H         1 <0>         0.0754
     48 H18        -1.6897   -0.3574   -1.1802 H         1 <0>         0.0793
     49 H19        -0.9476   -2.3316   -3.3904 H         1 <0>         0.0951
     50 H20        -0.5935   -2.5138   -1.6544 H         1 <0>         0.0773
     51 H21        -2.6229   -3.8015   -2.3335 H         1 <0>         0.0985
     52 H22        -3.0056   -2.5337   -1.1440 H         1 <0>         0.0412
     53 H23        -4.5110   -0.3769   -3.6492 H         1 <0>         0.1039
     54 H24        -4.1175   -0.5170   -1.9188 H         1 <0>         0.0498
     55 H25        -2.5514    1.0376   -3.0188 H         1 <0>         0.0866
     56 H26        -2.1122   -0.2192   -4.2020 H         1 <0>         0.0898
     57 H27        -0.1663    1.2193   -0.8466 H         1 <0>         0.3703
     58 H28         3.0512   -3.6140    3.2607 H         1 <0>         0.1427
     59 H29         4.5030   -5.3196    4.2766 H         1 <0>         0.1521
     60 H30         1.4931   -8.2813    3.6415 H         1 <0>         0.1510
     61 H31         0.0244   -6.5848    2.6344 H         1 <0>         0.1373
     62 H32        -1.2739   -4.3144    3.1304 H         1 <0>         0.4654
@<TRIPOS>BOND
     1    1    2 1
     2    1   32 1
     3    1   33 1
     4    1   34 1
     5    2   10 1
     6    2   14 1
     7    2    3 1
     8    3    4 1
     9    3   35 1
    10    3   36 1
    11    4    8 1
    12    4    5 1
    13    5    6 2
    14    5   37 1
    15    6    7 1
    16    6   62 1
    17    7    8 2
    18    7   25 1
    19    8    9 1
    20    9   10 2
    21    9   38 1
    22   10   11 1
    23   11   12 1
    24   11   39 1
    25   11   40 1
    26   12   13 1
    27   12   41 1
    28   12   42 1
    29   13   14 1
    30   13   43 1
    31   13   44 1
    32   14   15 1
    33   14   16 1
    34   16   17 1
    35   16   18 1
    36   16   24 1
    37   17   45 1
    38   17   46 1
    39   17   47 1
    40   18   23 1
    41   18   19 1
    42   18   48 1
    43   19   20 1
    44   19   49 1
    45   19   50 1
    46   20   21 1
    47   20   51 1
    48   20   52 1
    49   21   22 1
    50   22   23 1
    51   22   53 1
    52   22   54 1
    53   23   55 1
    54   23   56 1
    55   24   57 1
    56   25   30 ar
    57   25   26 ar
    58   26   27 ar
    59   26   58 1
    60   27   28 ar
    61   27   59 1
    62   28   29 ar
    63   28   31 1
    64   29   30 ar
    65   29   60 1
    66   30   61 1
@<TRIPOS>MOLECULE
CHEMBL572355__1
   61    65     0     0     0
SMALL
USER_CHARGES

@<TRIPOS>ATOM
      1 C1          1.5985    0.5926   -0.1492 C.3       1 <0>        -0.1665
      2 C2          1.2275   -0.8419   -0.5309 C.3       1 <0>        -0.0237
      3 C3         -0.1349   -1.1665    0.1010 C.3       1 <0>         0.0474
      4 N1         -0.1888   -2.2811    1.0558 N.pl3     1 <0>        -0.4471
      5 C4         -1.1942   -2.7916    1.7978 C.2       1 <0>         0.1964
      6 N2         -0.7448   -3.7855    2.5130 N.2       1 <0>        -0.4694
      7 C5          0.5655   -3.9646    2.2635 C.2       1 <0>         0.0568
      8 C6          0.9420   -3.0127    1.3268 C.2       1 <0>         0.0242
      9 C7          2.2240   -2.7392    0.6760 C.2       1 <0>        -0.0924
     10 C8          2.3924   -1.7397   -0.1732 C.2       1 <0>        -0.0909
     11 C9          3.7229   -1.5012   -0.8442 C.3       1 <0>        -0.0778
     12 C10         3.5007   -1.4855   -2.3616 C.3       1 <0>        -0.1179
     13 C11         2.4012   -0.4793   -2.7049 C.3       1 <0>        -0.1194
     14 C12         1.0829   -0.8996   -2.0521 C.3       1 <0>        -0.1090
     15 H1          0.8352   -1.9168   -2.3553 H         1 <0>         0.0918
     16 C13        -0.0315    0.0506   -2.4950 C.3       1 <0>         0.1412
     17 C14         0.0941    0.3194   -3.9959 C.3       1 <0>        -0.1470
     18 C15        -1.3914   -0.5870   -2.2031 C.3       1 <0>        -0.1302
     19 C16        -1.2945   -2.1051   -2.3822 C.3       1 <0>        -0.1698
     20 C17        -2.6770   -2.7260   -2.1653 C.3       1 <0>         0.0600
     21 O1         -3.6072   -2.1464   -3.0823 O.3       1 <0>        -0.3775
     22 C18        -3.7745   -0.7353   -2.9301 C.3       1 <0>         0.0561
     23 C19        -2.4361   -0.0346   -3.1777 C.3       1 <0>        -0.1515
     24 O2          0.0805    1.2825   -1.7794 O.3       1 <0>        -0.5547
     25 C20         1.4434   -4.9881    2.8759 C.ar      1 <0>        -0.0083
     26 C21         2.4685   -5.5685    2.1287 C.ar      1 <0>        -0.0824
     27 C22         3.2835   -6.5214    2.7037 C.ar      1 <0>        -0.1511
     28 C23         3.0849   -6.9027    4.0210 C.ar      1 <0>         0.0974
     29 C24         2.0677   -6.3296    4.7672 C.ar      1 <0>        -0.1515
     30 C25         1.2516   -5.3710    4.2035 C.ar      1 <0>        -0.0650
     31 F1          3.8854   -7.8368    4.5795 F         1 <0>        -0.1395
     32 H2          1.8262    1.1612   -1.0508 H         1 <0>         0.1086
     33 H3          0.7618    1.0577    0.3721 H         1 <0>         0.0564
     34 H4          2.4716    0.5807    0.5032 H         1 <0>         0.0576
     35 H5         -0.4881   -0.2710    0.6122 H         1 <0>         0.0812
     36 H6         -0.8345   -1.3837   -0.7061 H         1 <0>         0.1398
     37 H7         -2.2128   -2.4325    1.7994 H         1 <0>         0.2065
     38 H8          3.0708   -3.3658    0.9144 H         1 <0>         0.1322
     39 H9          4.1301   -0.5426   -0.5225 H         1 <0>         0.0801
     40 H10         4.4151   -2.3015   -0.5824 H         1 <0>         0.0764
     41 H11         4.4256   -1.1977   -2.8614 H         1 <0>         0.0712
     42 H12         3.2012   -2.4790   -2.6953 H         1 <0>         0.0641
     43 H13         2.6870    0.5072   -2.3399 H         1 <0>         0.0767
     44 H14         2.2724   -0.4394   -3.7865 H         1 <0>         0.0749
     45 H15         0.0873   -0.6271   -4.5364 H         1 <0>         0.0708
     46 H16        -0.7441    0.9327   -4.3266 H         1 <0>         0.0712
     47 H17         1.0287    0.8442   -4.1941 H         1 <0>         0.0707
     48 H18        -1.6897   -0.3574   -1.1802 H         1 <0>         0.0829
     49 H19        -0.9476   -2.3316   -3.3904 H         1 <0>         0.0852
     50 H20        -0.5935   -2.5138   -1.6544 H         1 <0>         0.0875
     51 H21        -2.6229   -3.8015   -2.3335 H         1 <0>         0.0974
     52 H22        -3.0056   -2.5337   -1.1440 H         1 <0>         0.0480
     53 H23        -4.5110   -0.3769   -3.6492 H         1 <0>         0.0976
     54 H24        -4.1175   -0.5170   -1.9188 H         1 <0>         0.0489
     55 H25        -2.5514    1.0376   -3.0188 H         1 <0>         0.0810
     56 H26        -2.1122   -0.2192   -4.2020 H         1 <0>         0.0845
     57 H27        -0.1663    1.2193   -0.8466 H         1 <0>         0.3741
     58 H28         2.6237   -5.2724    1.1018 H         1 <0>         0.1332
     59 H29         4.0774   -6.9713    2.1261 H         1 <0>         0.1377
     60 H30         1.9165   -6.6307    5.7933 H         1 <0>         0.1378
     61 H31         0.4621   -4.9214    4.7874 H         1 <0>         0.1369
@<TRIPOS>BOND
     1    1    2 1
     2    1   32 1
     3    1   33 1
     4    1   34 1
     5    2   10 1
     6    2   14 1
     7    2    3 1
     8    3    4 1
     9    3   35 1
    10    3   36 1
    11    4    8 1
    12    4    5 1
    13    5    6 2
    14    5   37 1
    15    6    7 1
    16    7    8 2
    17    7   25 1
    18    8    9 1
    19    9   10 2
    20    9   38 1
    21   10   11 1
    22   11   12 1
    23   11   39 1
    24   11   40 1
    25   12   13 1
    26   12   41 1
    27   12   42 1
    28   13   14 1
    29   13   43 1
    30   13   44 1
    31   14   15 1
    32   14   16 1
    33   16   17 1
    34   16   18 1
    35   16   24 1
    36   17   45 1
    37   17   46 1
    38   17   47 1
    39   18   23 1
    40   18   19 1
    41   18   48 1
    42   19   20 1
    43   19   49 1
    44   19   50 1
    45   20   21 1
    46   20   51 1
    47   20   52 1
    48   21   22 1
    49   22   23 1
    50   22   53 1
    51   22   54 1
    52   23   55 1
    53   23   56 1
    54   24   57 1
    55   25   30 ar
    56   25   26 ar
    57   26   27 ar
    58   26   58 1
    59   27   28 ar
    60   27   59 1
    61   28   29 ar
    62   28   31 1
    63   29   30 ar
    64   29   60 1
    65   30   61 1
@<TRIPOS>MOLECULE
CHEMBL429592
   62    67     0     0     0
SMALL
USER_CHARGES

@<TRIPOS>ATOM
      1 C1         -0.0167    1.3782    0.0096 C.ar      1 <0>        -0.0826
      2 C2          1.1703    2.0860    0.0021 C.ar      1 <0>        -0.1512
      3 C3          2.3786    1.4101   -0.0131 C.ar      1 <0>         0.1108
      4 C4          2.3962    0.0256   -0.0207 C.ar      1 <0>        -0.1473
      5 C5          1.2079   -0.6800   -0.0132 C.ar      1 <0>        -0.0750
      6 C6          0.0021   -0.0041    0.0020 C.ar      1 <0>        -0.1027
      7 C7         -1.2930   -0.7747    0.0103 C.3       1 <0>        -0.0808
      8 C8         -1.7450   -1.0277   -1.4294 C.3       1 <0>        -0.0183
      9 C9         -0.7511   -2.0042   -2.0767 C.3       1 <0>        -0.0318
     10 C10         0.0262   -1.4986   -3.2710 C.2       1 <0>        -0.1999
     11 C11         1.0188   -2.0797   -4.0555 C.2       1 <0>         0.0685
     12 N1          1.3813   -1.2200   -4.9748 N.2       1 <0>        -0.2571
     13 N2          0.6323   -0.0478   -4.8163 N.pl3     1 <0>        -0.3049
     14 C12        -0.2170   -0.2330   -3.7570 C.2       1 <0>         0.0951
     15 C13        -1.2355    0.6431   -3.1657 C.2       1 <0>        -0.0378
     16 C14        -1.9406    0.3141   -2.1038 C.2       1 <0>        -0.1312
     17 C15        -3.0148    1.2282   -1.5613 C.3       1 <0>        -0.0971
     18 C16        -4.3102    0.4131   -1.4483 C.3       1 <0>        -0.0121
     19 N3         -4.0604   -0.8055   -0.6705 N.4       1 <0>        -0.3842
     20 C17        -3.1233   -1.6871   -1.3787 C.3       1 <0>        -0.0025
     21 C18        -5.3293   -1.5154   -0.4614 C.3       1 <0>         0.0411
     22 C19        -6.2409   -0.6735    0.3937 C.ar      1 <0>        -0.1117
     23 C20        -6.2193   -0.7833    1.7757 C.ar      1 <0>        -0.1505
     24 C21        -7.0699    0.0051    2.5273 C.ar      1 <0>         0.1167
     25 N4         -7.8947    0.8532    1.9446 N.ar      1 <0>        -0.4578
     26 C22        -7.9423    0.9842    0.6333 C.ar      1 <0>         0.1153
     27 C23        -7.1171    0.2335   -0.1826 C.ar      1 <0>        -0.1550
     28 C24         0.7328    1.1085   -5.6013 C.ar      1 <0>         0.1327
     29 C25        -0.3996    1.8647   -5.8734 C.ar      1 <0>        -0.1047
     30 C26        -0.2983    3.0043   -6.6469 C.ar      1 <0>        -0.1319
     31 C27         0.9316    3.3931   -7.1510 C.ar      1 <0>         0.1092
     32 C28         2.0621    2.6400   -6.8811 C.ar      1 <0>        -0.1292
     33 C29         1.9659    1.5030   -6.1034 C.ar      1 <0>        -0.0754
     34 F1          1.0286    4.5082   -7.9075 F         1 <0>        -0.1275
     35 F2          3.5396    2.1009   -0.0209 F         1 <0>        -0.1332
     36 H1         -0.9592    1.9052    0.0260 H         1 <0>         0.1258
     37 H2          1.1554    3.1659    0.0077 H         1 <0>         0.1373
     38 H3          3.3381   -0.5027   -0.0329 H         1 <0>         0.1391
     39 H4          1.2213   -1.7599   -0.0195 H         1 <0>         0.1342
     40 H5         -1.1453   -1.7280    0.5176 H         1 <0>         0.0994
     41 H6         -2.0553   -0.1984    0.5345 H         1 <0>         0.0652
     42 H7         -0.0346   -2.3092   -1.3140 H         1 <0>         0.0939
     43 H8         -1.3044   -2.8907   -2.3866 H         1 <0>         0.0844
     44 H9          1.4222   -3.0733   -3.9276 H         1 <0>         0.1948
     45 H10        -1.3999    1.6131   -3.6114 H         1 <0>         0.1294
     46 H11        -2.7236    1.5971   -0.5777 H         1 <0>         0.1023
     47 H12        -3.1642    2.0667   -2.2415 H         1 <0>         0.1235
     48 H13        -5.0730    1.0115   -0.9501 H         1 <0>         0.1355
     49 H14        -4.6565    0.1423   -2.4457 H         1 <0>         0.1350
     50 H15        -3.4819   -1.8585   -2.3937 H         1 <0>         0.1383
     51 H16        -3.0517   -2.6391   -0.8527 H         1 <0>         0.1405
     52 H17        -5.8044   -1.7018   -1.4246 H         1 <0>         0.1428
     53 H18        -5.1366   -2.4647    0.0384 H         1 <0>         0.1446
     54 H19        -5.5466   -1.4765    2.2586 H         1 <0>         0.1465
     55 H20        -7.0592   -0.0744    3.6043 H         1 <0>         0.1700
     56 H21        -8.6313    1.6891    0.1920 H         1 <0>         0.1696
     57 H22        -7.1573    0.3489   -1.2557 H         1 <0>         0.1461
     58 H23        -1.3589    1.5617   -5.4808 H         1 <0>         0.1376
     59 H24        -1.1789    3.5925   -6.8591 H         1 <0>         0.1495
     60 H25         3.0202    2.9447   -7.2755 H         1 <0>         0.1515
     61 H26         2.8486    0.9186   -5.8891 H         1 <0>         0.1464
     62 H27        -3.6688   -0.5544    0.2249 H         1 <0>         0.4205
@<TRIPOS>BOND
     1    1    6 ar
     2    1    2 ar
     3    1   36 1
     4    2    3 ar
     5    2   37 1
     6    3    4 ar
     7    3   35 1
     8    4    5 ar
     9    4   38 1
    10    5    6 ar
    11    5   39 1
    12    6    7 1
    13    7    8 1
    14    7   40 1
    15    7   41 1
    16    8   16 1
    17    8   20 1
    18    8    9 1
    19    9   10 1
    20    9   42 1
    21    9   43 1
    22   10   14 2
    23   10   11 1
    24   11   12 2
    25   11   44 1
    26   12   13 1
    27   13   14 1
    28   13   28 1
    29   14   15 1
    30   15   16 2
    31   15   45 1
    32   16   17 1
    33   17   18 1
    34   17   46 1
    35   17   47 1
    36   18   19 1
    37   18   48 1
    38   18   49 1
    39   19   20 1
    40   19   21 1
    41   19   62 1
    42   20   50 1
    43   20   51 1
    44   21   22 1
    45   21   52 1
    46   21   53 1
    47   22   27 ar
    48   22   23 ar
    49   23   24 ar
    50   23   54 1
    51   24   25 ar
    52   24   55 1
    53   25   26 ar
    54   26   27 ar
    55   26   56 1
    56   27   57 1
    57   28   33 ar
    58   28   29 ar
    59   29   30 ar
    60   29   58 1
    61   30   31 ar
    62   30   59 1
    63   31   32 ar
    64   31   34 1
    65   32   33 ar
    66   32   60 1
    67   33   61 1
@<TRIPOS>MOLECULE
CHEMBL429592__1
   61    66     0     0     0
SMALL
USER_CHARGES

@<TRIPOS>ATOM
      1 C1         -0.0167    1.3782    0.0096 C.ar      1 <0>        -0.0841
      2 C2          1.1703    2.0860    0.0021 C.ar      1 <0>        -0.1526
      3 C3          2.3786    1.4101   -0.0131 C.ar      1 <0>         0.0923
      4 C4          2.3962    0.0256   -0.0207 C.ar      1 <0>        -0.1508
      5 C5          1.2079   -0.6800   -0.0132 C.ar      1 <0>        -0.0834
      6 C6          0.0021   -0.0041    0.0020 C.ar      1 <0>        -0.0849
      7 C7         -1.2930   -0.7747    0.0103 C.3       1 <0>        -0.0650
      8 C8         -1.7450   -1.0277   -1.4294 C.3       1 <0>        -0.0074
      9 C9         -0.7516   -2.0049   -2.0768 C.3       1 <0>        -0.0343
     10 C10         0.0180   -1.5041   -3.2780 C.2       1 <0>        -0.2115
     11 C11         1.0055   -2.0883   -4.0667 C.2       1 <0>         0.0693
     12 N1          1.3613   -1.2326   -4.9923 N.2       1 <0>        -0.2784
     13 N2          0.6129   -0.0600   -4.8339 N.pl3     1 <0>        -0.3194
     14 C12        -0.2285   -0.2405   -3.7676 C.2       1 <0>         0.1221
     15 C13        -1.2415    0.6387   -3.1716 C.2       1 <0>        -0.1155
     16 C14        -1.9407    0.3138   -2.1040 C.2       1 <0>        -0.0516
     17 C15        -3.0046    1.2359   -1.5550 C.3       1 <0>        -0.0804
     18 C16        -4.3091    0.4352   -1.4434 C.3       1 <0>         0.0535
     19 N3         -4.0648   -0.7988   -0.6871 N.3       1 <0>        -0.5327
     20 C17        -3.1228   -1.6888   -1.3790 C.3       1 <0>         0.0654
     21 C18        -5.3250   -1.4934   -0.3915 C.3       1 <0>         0.0935
     22 C19        -6.1524   -0.6547    0.5483 C.ar      1 <0>        -0.0341
     23 C20        -6.0239   -0.7920    1.9220 C.ar      1 <0>        -0.1512
     24 C21        -6.7995   -0.0057    2.7528 C.ar      1 <0>         0.0992
     25 N4         -7.6533    0.8660    2.2528 N.ar      1 <0>        -0.4852
     26 C22        -7.8018    1.0234    0.9520 C.ar      1 <0>         0.0990
     27 C23        -7.0560    0.2765    0.0598 C.ar      1 <0>        -0.1703
     28 C24         0.7075    1.0928   -5.6249 C.ar      1 <0>         0.1488
     29 C25        -0.4271    1.8473   -5.8925 C.ar      1 <0>        -0.1054
     30 C26        -0.3318    2.9834   -6.6718 C.ar      1 <0>        -0.1305
     31 C27         0.8944    3.3703   -7.1863 C.ar      1 <0>         0.0976
     32 C28         2.0271    2.6190   -6.9210 C.ar      1 <0>        -0.1315
     33 C29         1.9369    1.4854   -6.1373 C.ar      1 <0>        -0.0824
     34 F1          0.9856    4.4821   -7.9485 F         1 <0>        -0.1332
     35 F2          3.5396    2.1009   -0.0209 F         1 <0>        -0.1424
     36 H1         -0.9592    1.9052    0.0260 H         1 <0>         0.1287
     37 H2          1.1554    3.1659    0.0077 H         1 <0>         0.1313
     38 H3          3.3381   -0.5027   -0.0329 H         1 <0>         0.1317
     39 H4          1.2213   -1.7599   -0.0195 H         1 <0>         0.1304
     40 H5         -1.1453   -1.7280    0.5176 H         1 <0>         0.0777
     41 H6         -2.0553   -0.1984    0.5345 H         1 <0>         0.0956
     42 H7         -0.0302   -2.3037   -1.3163 H         1 <0>         0.0797
     43 H8         -1.3040   -2.8947   -2.3788 H         1 <0>         0.0720
     44 H9          1.4106   -3.0809   -3.9368 H         1 <0>         0.1892
     45 H10        -1.4076    1.6075   -3.6191 H         1 <0>         0.1170
     46 H11        -2.7078    1.5966   -0.5701 H         1 <0>         0.0907
     47 H12        -3.1461    2.0795   -2.2305 H         1 <0>         0.0811
     48 H13        -5.0599    1.0342   -0.9282 H         1 <0>         0.0864
     49 H14        -4.6676    0.1842   -2.4417 H         1 <0>         0.0395
     50 H15        -3.4752   -1.8730   -2.3939 H         1 <0>         0.0433
     51 H16        -3.0532   -2.6341   -0.8406 H         1 <0>         0.0859
     52 H17        -5.8774   -1.6536   -1.3174 H         1 <0>         0.0499
     53 H18        -5.1093   -2.4551    0.0740 H         1 <0>         0.0913
     54 H19        -5.3269   -1.5047    2.3375 H         1 <0>         0.1360
     55 H20        -6.7054   -0.1066    3.8240 H         1 <0>         0.1557
     56 H21        -8.5116    1.7472    0.5795 H         1 <0>         0.1545
     57 H22        -7.1785    0.4135   -1.0044 H         1 <0>         0.1309
     58 H23        -1.3836    1.5457   -5.4917 H         1 <0>         0.1411
     59 H24        -1.2140    3.5703   -6.8805 H         1 <0>         0.1468
     60 H25         2.9823    2.9222   -7.3234 H         1 <0>         0.1469
     61 H26         2.8212    0.9024   -5.9266 H         1 <0>         0.1441
@<TRIPOS>BOND
     1    1    6 ar
     2    1    2 ar
     3    1   36 1
     4    2    3 ar
     5    2   37 1
     6    3    4 ar
     7    3   35 1
     8    4    5 ar
     9    4   38 1
    10    5    6 ar
    11    5   39 1
    12    6    7 1
    13    7    8 1
    14    7   40 1
    15    7   41 1
    16    8   16 1
    17    8   20 1
    18    8    9 1
    19    9   10 1
    20    9   42 1
    21    9   43 1
    22   10   14 2
    23   10   11 1
    24   11   12 2
    25   11   44 1
    26   12   13 1
    27   13   14 1
    28   13   28 1
    29   14   15 1
    30   15   16 2
    31   15   45 1
    32   16   17 1
    33   17   18 1
    34   17   46 1
    35   17   47 1
    36   18   19 1
    37   18   48 1
    38   18   49 1
    39   19   20 1
    40   19   21 1
    41   20   50 1
    42   20   51 1
    43   21   22 1
    44   21   52 1
    45   21   53 1
    46   22   27 ar
    47   22   23 ar
    48   23   24 ar
    49   23   54 1
    50   24   25 ar
    51   24   55 1
    52   25   26 ar
    53   26   27 ar
    54   26   56 1
    55   27   57 1
    56   28   33 ar
    57   28   29 ar
    58   29   30 ar
    59   29   58 1
    60   30   31 ar
    61   30   59 1
    62   31   32 ar
    63   31   34 1
    64   32   33 ar
    65   32   60 1
    66   33   61 1
@<TRIPOS>MOLECULE
CHEMBL429592__2
   62    67     0     0     0
SMALL
USER_CHARGES

@<TRIPOS>ATOM
      1 C1         -0.0167    1.3782    0.0096 C.ar      1 <0>        -0.0624
      2 C2          1.1703    2.0860    0.0021 C.ar      1 <0>        -0.1467
      3 C3          2.3786    1.4101   -0.0131 C.ar      1 <0>         0.1146
      4 C4          2.3962    0.0256   -0.0207 C.ar      1 <0>        -0.1624
      5 C5          1.2079   -0.6800   -0.0132 C.ar      1 <0>        -0.0869
      6 C6          0.0021   -0.0041    0.0020 C.ar      1 <0>        -0.1003
      7 C7         -1.2930   -0.7747    0.0103 C.3       1 <0>        -0.0576
      8 C8         -1.7450   -1.0277   -1.4294 C.3       1 <0>        -0.0237
      9 C9         -2.0344    0.3091   -2.1122 C.3       1 <0>        -0.0329
     10 C10        -0.7256    0.9702   -2.4577 C.2       1 <0>        -0.2182
     11 C11        -0.3766    2.3039   -2.5335 C.2       1 <0>         0.0687
     12 N1          0.8881    2.3857   -2.8844 N.2       1 <0>        -0.2651
     13 N2          1.3999    1.0867   -3.0475 N.pl3     1 <0>        -0.2819
     14 C12         0.4009    0.2199   -2.7754 C.2       1 <0>         0.1025
     15 C13         0.3530   -1.2514   -2.7579 C.2       1 <0>        -0.0314
     16 C14        -0.6885   -1.8252   -2.1525 C.2       1 <0>        -0.1507
     17 C15        -0.8467   -3.3301   -2.1688 C.3       1 <0>        -0.0946
     18 C16        -2.1888   -3.6823   -2.8089 C.3       1 <0>        -0.0061
     19 N3         -3.1446   -2.5833   -2.6943 N.4       1 <0>        -0.3765
     20 C17        -3.0262   -1.8736   -1.4192 C.3       1 <0>        -0.0026
     21 C18        -4.5060   -3.1219   -2.8148 C.3       1 <0>         0.0409
     22 C19        -4.7021   -3.6871   -4.1980 C.ar      1 <0>        -0.1121
     23 C20        -5.1753   -2.8906   -5.2296 C.ar      1 <0>        -0.1501
     24 C21        -5.3425   -3.4437   -6.4850 C.ar      1 <0>         0.1157
     25 N4         -5.0582   -4.7122   -6.7066 N.ar      1 <0>        -0.4582
     26 C22        -4.6064   -5.4990   -5.7496 C.ar      1 <0>         0.1142
     27 C23        -4.4081   -5.0143   -4.4706 C.ar      1 <0>        -0.1519
     28 C24         2.7075    0.7525   -3.4241 C.ar      1 <0>         0.1293
     29 C25         3.3134   -0.3819   -2.9003 C.ar      1 <0>        -0.1018
     30 C26         4.6021   -0.7098   -3.2731 C.ar      1 <0>        -0.1347
     31 C27         5.2900    0.0917   -4.1687 C.ar      1 <0>         0.1125
     32 C28         4.6877    1.2237   -4.6919 C.ar      1 <0>        -0.1316
     33 C29         3.3971    1.5520   -4.3260 C.ar      1 <0>        -0.0731
     34 F1          6.5506   -0.2308   -4.5321 F         1 <0>        -0.1273
     35 F2          3.5396    2.1009   -0.0209 F         1 <0>        -0.1351
     36 H1         -0.9592    1.9052    0.0260 H         1 <0>         0.1298
     37 H2          1.1554    3.1659    0.0077 H         1 <0>         0.1336
     38 H3          3.3381   -0.5027   -0.0329 H         1 <0>         0.1318
     39 H4          1.2213   -1.7599   -0.0195 H         1 <0>         0.1257
     40 H5         -1.1453   -1.7280    0.5176 H         1 <0>         0.0846
     41 H6         -2.0553   -0.1984    0.5345 H         1 <0>         0.0921
     42 H7         -2.6088    0.1376   -3.0226 H         1 <0>         0.0682
     43 H8         -2.6002    0.9499   -1.4360 H         1 <0>         0.0983
     44 H9         -1.0322    3.1395   -2.3379 H         1 <0>         0.1894
     45 H10         1.1268   -1.8443   -3.2228 H         1 <0>         0.1405
     46 H11        -0.0381   -3.7756   -2.7482 H         1 <0>         0.1129
     47 H12        -0.8184   -3.7109   -1.1478 H         1 <0>         0.1060
     48 H13        -2.0315   -3.9087   -3.8634 H         1 <0>         0.1287
     49 H14        -2.5985   -4.5631   -2.3145 H         1 <0>         0.1322
     50 H15        -2.9797   -2.5952   -0.6037 H         1 <0>         0.1378
     51 H16        -3.8906   -1.2237   -1.2826 H         1 <0>         0.1408
     52 H17        -4.6515   -3.9102   -2.0762 H         1 <0>         0.1430
     53 H18        -5.2288   -2.3245   -2.6423 H         1 <0>         0.1439
     54 H19        -5.4105   -1.8513   -5.0542 H         1 <0>         0.1459
     55 H20        -5.7106   -2.8301   -7.2939 H         1 <0>         0.1693
     56 H21        -4.3847   -6.5330   -5.9689 H         1 <0>         0.1691
     57 H22        -4.0331   -5.6624   -3.6923 H         1 <0>         0.1448
     58 H23         2.7774   -1.0070   -2.2015 H         1 <0>         0.1402
     59 H24         5.0738   -1.5918   -2.8656 H         1 <0>         0.1490
     60 H25         5.2260    1.8477   -5.3899 H         1 <0>         0.1509
     61 H26         2.9260    2.4322   -4.7380 H         1 <0>         0.1462
     62 H27        -2.9849   -1.9313   -3.4476 H         1 <0>         0.4230
@<TRIPOS>BOND
     1    1    6 ar
     2    1    2 ar
     3    1   36 1
     4    2    3 ar
     5    2   37 1
     6    3    4 ar
     7    3   35 1
     8    4    5 ar
     9    4   38 1
    10    5    6 ar
    11    5   39 1
    12    6    7 1
    13    7    8 1
    14    7   40 1
    15    7   41 1
    16    8   16 1
    17    8   20 1
    18    8    9 1
    19    9   10 1
    20    9   42 1
    21    9   43 1
    22   10   14 2
    23   10   11 1
    24   11   12 2
    25   11   44 1
    26   12   13 1
    27   13   14 1
    28   13   28 1
    29   14   15 1
    30   15   16 2
    31   15   45 1
    32   16   17 1
    33   17   18 1
    34   17   46 1
    35   17   47 1
    36   18   19 1
    37   18   48 1
    38   18   49 1
    39   19   20 1
    40   19   21 1
    41   19   62 1
    42   20   50 1
    43   20   51 1
    44   21   22 1
    45   21   52 1
    46   21   53 1
    47   22   27 ar
    48   22   23 ar
    49   23   24 ar
    50   23   54 1
    51   24   25 ar
    52   24   55 1
    53   25   26 ar
    54   26   27 ar
    55   26   56 1
    56   27   57 1
    57   28   33 ar
    58   28   29 ar
    59   29   30 ar
    60   29   58 1
    61   30   31 ar
    62   30   59 1
    63   31   32 ar
    64   31   34 1
    65   32   33 ar
    66   32   60 1
    67   33   61 1
@<TRIPOS>MOLECULE
CHEMBL429592__3
   61    66     0     0     0
SMALL
USER_CHARGES

@<TRIPOS>ATOM
      1 C1         -0.0167    1.3782    0.0096 C.ar      1 <0>        -0.0634
      2 C2          1.1703    2.0860    0.0021 C.ar      1 <0>        -0.1464
      3 C3          2.3786    1.4101   -0.0131 C.ar      1 <0>         0.1029
      4 C4          2.3962    0.0256   -0.0207 C.ar      1 <0>        -0.1627
      5 C5          1.2079   -0.6800   -0.0132 C.ar      1 <0>        -0.0875
      6 C6          0.0021   -0.0041    0.0020 C.ar      1 <0>        -0.0843
      7 C7         -1.2930   -0.7747    0.0103 C.3       1 <0>        -0.0652
      8 C8         -1.7450   -1.0277   -1.4294 C.3       1 <0>        -0.0091
      9 C9         -2.0342    0.3097   -2.1112 C.3       1 <0>        -0.0220
     10 C10        -0.7253    0.9735   -2.4510 C.2       1 <0>        -0.2225
     11 C11        -0.3780    2.3078   -2.5237 C.2       1 <0>         0.0660
     12 N1          0.8878    2.3919   -2.8698 N.2       1 <0>        -0.2871
     13 N2          1.4022    1.0940   -3.0328 N.pl3     1 <0>        -0.2989
     14 C12         0.4035    0.2252   -2.7655 C.2       1 <0>         0.1299
     15 C13         0.3577   -1.2460   -2.7501 C.2       1 <0>        -0.1132
     16 C14        -0.6882   -1.8249   -2.1512 C.2       1 <0>        -0.0440
     17 C15        -0.8426   -3.3301   -2.1732 C.3       1 <0>        -0.0915
     18 C16        -2.1803   -3.6840   -2.8226 C.3       1 <0>         0.0672
     19 N3         -3.1422   -2.5911   -2.6871 N.3       1 <0>        -0.5386
     20 C17        -3.0293   -1.8683   -1.4178 C.3       1 <0>         0.0695
     21 C18        -4.5150   -3.0686   -2.9007 C.3       1 <0>         0.0970
     22 C19        -4.6755   -3.5121   -4.3320 C.ar      1 <0>        -0.0343
     23 C20        -5.0816   -2.6180   -5.3108 C.ar      1 <0>        -0.1509
     24 C21        -5.2179   -3.0610   -6.6128 C.ar      1 <0>         0.0983
     25 N4         -4.9673   -4.3168   -6.9278 N.ar      1 <0>        -0.4857
     26 C22        -4.5794   -5.1944   -6.0233 C.ar      1 <0>         0.0980
     27 C23        -4.4153   -4.8227   -4.7023 C.ar      1 <0>        -0.1685
     28 C24         2.7116    0.7622   -3.4053 C.ar      1 <0>         0.1496
     29 C25         3.3174   -0.3719   -2.8808 C.ar      1 <0>        -0.1029
     30 C26         4.6078   -0.6974   -3.2495 C.ar      1 <0>        -0.1340
     31 C27         5.2976    0.1063   -4.1417 C.ar      1 <0>         0.0988
     32 C28         4.6954    1.2381   -4.6656 C.ar      1 <0>        -0.1336
     33 C29         3.4031    1.5639   -4.3038 C.ar      1 <0>        -0.0815
     34 F1          6.5600   -0.2138   -4.5012 F         1 <0>        -0.1340
     35 F2          3.5396    2.1009   -0.0209 F         1 <0>        -0.1421
     36 H1         -0.9592    1.9052    0.0260 H         1 <0>         0.1278
     37 H2          1.1554    3.1659    0.0077 H         1 <0>         0.1284
     38 H3          3.3381   -0.5027   -0.0329 H         1 <0>         0.1270
     39 H4          1.2213   -1.7599   -0.0195 H         1 <0>         0.1240
     40 H5         -1.1453   -1.7280    0.5176 H         1 <0>         0.0744
     41 H6         -2.0553   -0.1984    0.5345 H         1 <0>         0.0822
     42 H7         -2.6050    0.1386   -3.0239 H         1 <0>         0.0812
     43 H8         -2.6035    0.9485   -1.4360 H         1 <0>         0.0764
     44 H9         -1.0356    3.1422   -2.3294 H         1 <0>         0.1825
     45 H10         1.1341   -1.8369   -3.2133 H         1 <0>         0.1251
     46 H11        -0.0294   -3.7717   -2.7493 H         1 <0>         0.0814
     47 H12        -0.8194   -3.7140   -1.1534 H         1 <0>         0.0787
     48 H13        -2.0200   -3.8892   -3.8811 H         1 <0>         0.0774
     49 H14        -2.5842   -4.5763   -2.3443 H         1 <0>         0.0401
     50 H15        -2.9903   -2.5816   -0.5946 H         1 <0>         0.0433
     51 H16        -3.8919   -1.2137   -1.2933 H         1 <0>         0.0846
     52 H17        -4.7152   -3.9084   -2.2354 H         1 <0>         0.0497
     53 H18        -5.2171   -2.2621   -2.6893 H         1 <0>         0.0901
     54 H19        -5.2890   -1.5885   -5.0589 H         1 <0>         0.1351
     55 H20        -5.5338   -2.3708   -7.3811 H         1 <0>         0.1551
     56 H21        -4.3837   -6.2146   -6.3189 H         1 <0>         0.1542
     57 H22        -4.0925   -5.5449   -3.9670 H         1 <0>         0.1301
     58 H23         2.7799   -0.9987   -2.1847 H         1 <0>         0.1436
     59 H24         5.0794   -1.5792   -2.8415 H         1 <0>         0.1451
     60 H25         5.2351    1.8638   -5.3610 H         1 <0>         0.1456
     61 H26         2.9320    2.4439   -4.7162 H         1 <0>         0.1435
@<TRIPOS>BOND
     1    1    6 ar
     2    1    2 ar
     3    1   36 1
     4    2    3 ar
     5    2   37 1
     6    3    4 ar
     7    3   35 1
     8    4    5 ar
     9    4   38 1
    10    5    6 ar
    11    5   39 1
    12    6    7 1
    13    7    8 1
    14    7   40 1
    15    7   41 1
    16    8   16 1
    17    8   20 1
    18    8    9 1
    19    9   10 1
    20    9   42 1
    21    9   43 1
    22   10   14 2
    23   10   11 1
    24   11   12 2
    25   11   44 1
    26   12   13 1
    27   13   14 1
    28   13   28 1
    29   14   15 1
    30   15   16 2
    31   15   45 1
    32   16   17 1
    33   17   18 1
    34   17   46 1
    35   17   47 1
    36   18   19 1
    37   18   48 1
    38   18   49 1
    39   19   20 1
    40   19   21 1
    41   20   50 1
    42   20   51 1
    43   21   22 1
    44   21   52 1
    45   21   53 1
    46   22   27 ar
    47   22   23 ar
    48   23   24 ar
    49   23   54 1
    50   24   25 ar
    51   24   55 1
    52   25   26 ar
    53   26   27 ar
    54   26   56 1
    55   27   57 1
    56   28   33 ar
    57   28   29 ar
    58   29   30 ar
    59   29   58 1
    60   30   31 ar
    61   30   59 1
    62   31   32 ar
    63   31   34 1
    64   32   33 ar
    65   32   60 1
    66   33   61 1
@<TRIPOS>MOLECULE
CHEMBL230030
   56    59     0     0     0
SMALL
USER_CHARGES

@<TRIPOS>ATOM
      1 C1         -0.2125    1.8782    0.5731 C.3       1 <0>         0.0785
      2 N1         -0.1484    0.4241    0.4060 N.am      1 <0>        -0.5558
      3 C2         -0.5512   -0.3818    1.4081 C.2       1 <0>         0.5572
      4 O1         -0.9672    0.0959    2.4498 O.2       1 <0>        -0.5079
      5 C3         -0.4892   -1.7746    1.2452 C.2       1 <0>        -0.2732
      6 C4         -0.0191   -2.2851    0.0672 C.2       1 <0>         0.4594
      7 N2          0.3810   -1.4267   -0.9280 N.am      1 <0>        -0.6470
      8 H1          0.7151   -1.7825   -1.7662 H         1 <0>         0.4295
      9 C5          0.3067   -0.0951   -0.7487 C.2       1 <0>         0.7012
     10 O2          0.6608    0.6501   -1.6419 O.2       1 <0>        -0.5404
     11 N3          0.0528   -3.6418   -0.1191 N.pl3     1 <0>        -0.6555
     12 C6         -1.1692   -4.4404   -0.2853 C.3       1 <0>         0.1364
     13 C7         -1.0514   -5.2595   -1.5745 C.3       1 <0>        -0.1334
     14 C8          0.2374   -6.0838   -1.5345 C.3       1 <0>        -0.0774
     15 C9          1.4428   -5.1449   -1.4469 C.3       1 <0>        -0.1376
     16 C10         1.3536   -4.3236   -0.1624 C.3       1 <0>         0.1332
     17 C11         0.3413   -6.9295   -2.8053 C.3       1 <0>        -0.0774
     18 C12         1.5451   -7.8313   -2.7115 C.ar      1 <0>        -0.0803
     19 C13         2.7731   -7.3950   -3.1724 C.ar      1 <0>        -0.1180
     20 C14         3.8773   -8.2222   -3.0864 C.ar      1 <0>        -0.1182
     21 C15         3.7535   -9.4855   -2.5391 C.ar      1 <0>        -0.1242
     22 C16         2.5257   -9.9215   -2.0774 C.ar      1 <0>        -0.1171
     23 C17         1.4224   -9.0927   -2.1595 C.ar      1 <0>        -0.1179
     24 C18        -0.9340   -2.6942    2.3531 C.3       1 <0>         0.0022
     25 C19         0.1961   -2.8851    3.3316 C.ar      1 <0>        -0.0629
     26 C20         1.0275   -3.9844    3.2215 C.ar      1 <0>        -0.1122
     27 C21         2.0642   -4.1601    4.1186 C.ar      1 <0>        -0.1097
     28 C22         2.2702   -3.2371    5.1268 C.ar      1 <0>        -0.1150
     29 C23         1.4387   -2.1371    5.2375 C.ar      1 <0>        -0.0341
     30 C24         0.4047   -1.9585    4.3354 C.ar      1 <0>        -0.0980
     31 Cl1         1.6967   -0.9774    6.5033 Cl        1 <0>        -0.0710
     32 H2          0.1463    2.3643   -0.3341 H         1 <0>         0.0998
     33 H3         -1.2435    2.1771    0.7621 H         1 <0>         0.0808
     34 H4          0.4121    2.1749    1.4157 H         1 <0>         0.0805
     35 H5         -1.2852   -5.1122    0.5651 H         1 <0>         0.0718
     36 H6         -2.0325   -3.7781   -0.3508 H         1 <0>         0.0804
     37 H7         -1.9082   -5.9279   -1.6604 H         1 <0>         0.0789
     38 H8         -1.0267   -4.5870   -2.4319 H         1 <0>         0.0679
     39 H9          0.2229   -6.7384   -0.6630 H         1 <0>         0.0764
     40 H10         2.3614   -5.7317   -1.4420 H         1 <0>         0.0818
     41 H11         1.4441   -4.4734   -2.3055 H         1 <0>         0.0652
     42 H12         2.1543   -3.5843   -0.1468 H         1 <0>         0.0745
     43 H13         1.4479   -4.9857    0.6984 H         1 <0>         0.0724
     44 H14        -0.5587   -7.5348   -2.9134 H         1 <0>         0.0742
     45 H15         0.4446   -6.2743   -3.6703 H         1 <0>         0.0721
     46 H16         2.8698   -6.4079   -3.6000 H         1 <0>         0.1196
     47 H17         4.8366   -7.8816   -3.4471 H         1 <0>         0.1208
     48 H18         4.6161  -10.1321   -2.4725 H         1 <0>         0.1206
     49 H19         2.4289  -10.9086   -1.6501 H         1 <0>         0.1212
     50 H20         0.4639   -9.4319   -1.7953 H         1 <0>         0.1202
     51 H21        -1.7896   -2.2564    2.8672 H         1 <0>         0.0899
     52 H22        -1.2174   -3.6591    1.9327 H         1 <0>         0.0885
     53 H23         0.8666   -4.7062    2.4344 H         1 <0>         0.1267
     54 H24         2.7133   -5.0190    4.0321 H         1 <0>         0.1298
     55 H25         3.0798   -3.3749    5.8281 H         1 <0>         0.1306
     56 H26        -0.2420   -1.0975    4.4186 H         1 <0>         0.1418
@<TRIPOS>BOND
     1    1    2 1
     2    1   32 1
     3    1   33 1
     4    1   34 1
     5    2    9 am
     6    2    3 am
     7    3    4 2
     8    3    5 1
     9    5    6 2
    10    5   24 1
    11    6    7 1
    12    6   11 1
    13    7    8 1
    14    7    9 am
    15    9   10 2
    16   11   16 1
    17   11   12 1
    18   12   13 1
    19   12   35 1
    20   12   36 1
    21   13   14 1
    22   13   37 1
    23   13   38 1
    24   14   15 1
    25   14   17 1
    26   14   39 1
    27   15   16 1
    28   15   40 1
    29   15   41 1
    30   16   42 1
    31   16   43 1
    32   17   18 1
    33   17   44 1
    34   17   45 1
    35   18   23 ar
    36   18   19 ar
    37   19   20 ar
    38   19   46 1
    39   20   21 ar
    40   20   47 1
    41   21   22 ar
    42   21   48 1
    43   22   23 ar
    44   22   49 1
    45   23   50 1
    46   24   25 1
    47   24   51 1
    48   24   52 1
    49   25   30 ar
    50   25   26 ar
    51   26   27 ar
    52   26   53 1
    53   27   28 ar
    54   27   54 1
    55   28   29 ar
    56   28   55 1
    57   29   30 ar
    58   29   31 1
    59   30   56 1
@<TRIPOS>MOLECULE
CHEMBL219015
   54    55     0     0     0
SMALL
USER_CHARGES

@<TRIPOS>ATOM
      1 C1         -2.2400    3.2693   -0.5501 C.3       1 <0>        -0.0908
      2 C2         -1.6046    1.9048   -0.6238 C.2       1 <0>        -0.2484
      3 C3         -2.3596    0.7918   -0.4961 C.2       1 <0>         0.1371
      4 N1         -1.7948   -0.4392   -0.5618 N.pl3     1 <0>        -0.4744
      5 C4         -0.4622   -0.5972   -0.7565 C.2       1 <0>         0.1314
      6 C5          0.3472    0.4760   -0.8911 C.2       1 <0>        -0.2460
      7 C6         -0.2114    1.7746   -0.8332 C.2       1 <0>         0.3992
      8 O1          0.4958    2.7640   -0.9572 O.2       1 <0>        -0.5195
      9 C7          1.8273    0.2920   -1.1066 C.3       1 <0>        -0.0871
     10 C8         -2.6432   -1.6250   -0.4189 C.3       1 <0>         0.0619
     11 C9         -3.1499   -2.0586   -1.7959 C.3       1 <0>         0.0793
     12 C10        -4.0359   -3.2969   -1.6466 C.3       1 <0>        -0.1547
     13 C11        -4.6524   -3.6493   -3.0018 C.3       1 <0>        -0.0136
     14 C12        -5.9946   -4.3509   -2.7846 C.3       1 <0>        -0.1364
     15 C13        -4.8712   -2.3693   -3.8109 C.3       1 <0>        -0.1531
     16 C14        -3.7223   -4.5661   -3.7537 C.ar      1 <0>        -0.0440
     17 C15        -2.7815   -5.3102   -3.0679 C.ar      1 <0>        -0.1525
     18 C16        -1.9272   -6.1528   -3.7582 C.ar      1 <0>         0.0769
     19 C17        -2.0138   -6.2508   -5.1367 C.ar      1 <0>        -0.1277
     20 C18        -2.9533   -5.5081   -5.8249 C.ar      1 <0>        -0.1688
     21 C19        -3.8139   -4.6676   -5.1338 C.ar      1 <0>         0.1168
     22 O2         -4.7428   -3.9403   -5.8093 O.3       1 <0>        -0.2964
     23 C20        -4.7804   -4.0946   -7.2294 C.3       1 <0>         0.0160
     24 F1         -1.0078   -6.8798   -3.0863 F         1 <0>        -0.1395
     25 C21        -1.9583   -2.3896   -2.6967 C.3       1 <0>         0.4578
     26 F2         -1.1572   -3.3533   -2.0749 F         1 <0>        -0.1738
     27 F3         -2.4221   -2.8870   -3.9193 F         1 <0>        -0.1440
     28 F4         -1.2062   -1.2312   -2.9196 F         1 <0>        -0.1645
     29 O3         -3.9084   -0.9977   -2.3801 O.3       1 <0>        -0.5158
     30 H1         -1.4742    4.0341   -0.6792 H         1 <0>         0.0769
     31 H2         -2.9863    3.3656   -1.3386 H         1 <0>         0.0631
     32 H3         -2.7190    3.3951    0.4209 H         1 <0>         0.0621
     33 H4         -3.4243    0.8835   -0.3398 H         1 <0>         0.1579
     34 H5         -0.0433   -1.5915   -0.8040 H         1 <0>         0.1544
     35 H6          2.0343    0.2332   -2.1751 H         1 <0>         0.0651
     36 H7          2.3648    1.1382   -0.6785 H         1 <0>         0.0739
     37 H8          2.1534   -0.6283   -0.6221 H         1 <0>         0.0598
     38 H9         -2.0646   -2.4341    0.0267 H         1 <0>         0.1170
     39 H10        -3.4921   -1.3891    0.2229 H         1 <0>         0.1229
     40 H11        -3.4340   -4.1338   -1.2926 H         1 <0>         0.0982
     41 H12        -4.8299   -3.0912   -0.9287 H         1 <0>         0.1021
     42 H13        -6.6362   -3.7242   -2.1652 H         1 <0>         0.0618
     43 H14        -6.4750   -4.5226   -3.7479 H         1 <0>         0.0661
     44 H15        -5.8289   -5.3059   -2.2859 H         1 <0>         0.0559
     45 H16        -3.9062   -1.9290   -4.0623 H         1 <0>         0.0858
     46 H17        -5.4120   -2.6065   -4.7271 H         1 <0>         0.0721
     47 H18        -5.4511   -1.6605   -3.2199 H         1 <0>         0.0605
     48 H19        -2.7124   -5.2341   -1.9928 H         1 <0>         0.1426
     49 H20        -1.3462   -6.9080   -5.6741 H         1 <0>         0.1367
     50 H21        -3.0205   -5.5844   -6.9001 H         1 <0>         0.1376
     51 H22        -3.8181   -3.8054   -7.6519 H         1 <0>         0.0556
     52 H23        -4.9875   -5.1359   -7.4764 H         1 <0>         0.0551
     53 H24        -5.5643   -3.4602   -7.6432 H         1 <0>         0.1013
     54 H25        -4.6812   -0.7349   -1.8615 H         1 <0>         0.3900
@<TRIPOS>BOND
     1    1    2 1
     2    1   30 1
     3    1   31 1
     4    1   32 1
     5    2    7 1
     6    2    3 2
     7    3    4 1
     8    3   33 1
     9    4    5 1
    10    4   10 1
    11    5    6 2
    12    5   34 1
    13    6    7 1
    14    6    9 1
    15    7    8 2
    16    9   35 1
    17    9   36 1
    18    9   37 1
    19   10   11 1
    20   10   38 1
    21   10   39 1
    22   11   12 1
    23   11   25 1
    24   11   29 1
    25   12   13 1
    26   12   40 1
    27   12   41 1
    28   13   14 1
    29   13   15 1
    30   13   16 1
    31   14   42 1
    32   14   43 1
    33   14   44 1
    34   15   45 1
    35   15   46 1
    36   15   47 1
    37   16   21 ar
    38   16   17 ar
    39   17   18 ar
    40   17   48 1
    41   18   19 ar
    42   18   24 1
    43   19   20 ar
    44   19   49 1
    45   20   21 ar
    46   20   50 1
    47   21   22 1
    48   22   23 1
    49   23   51 1
    50   23   52 1
    51   23   53 1
    52   25   26 1
    53   25   27 1
    54   25   28 1
    55   29   54 1
@<TRIPOS>MOLECULE
CHEMBL219015__1
   54    55     0     0     0
SMALL
USER_CHARGES

@<TRIPOS>ATOM
      1 C1          2.7906   -1.8890   -1.3322 C.3       1 <0>        -0.0921
      2 C2          1.9893   -3.1619   -1.2382 C.2       1 <0>        -0.2468
      3 C3          0.6782   -3.1215   -0.9153 C.2       1 <0>         0.1318
      4 N1         -0.0491   -4.2627   -0.8294 N.pl3     1 <0>        -0.4770
      5 C4          0.5083   -5.4767   -1.0625 C.2       1 <0>         0.1376
      6 C5          1.8147   -5.5845   -1.3892 C.2       1 <0>        -0.2485
      7 C6          2.6003   -4.4123   -1.4929 C.2       1 <0>         0.3995
      8 O1          3.7837   -4.4790   -1.7922 O.2       1 <0>        -0.5193
      9 C7          2.4269   -6.9373   -1.6463 C.3       1 <0>        -0.0856
     10 C8         -1.4686   -4.1824   -0.4763 C.3       1 <0>         0.0627
     11 C9         -2.3039   -4.0423   -1.7505 C.3       1 <0>         0.0778
     12 C10        -3.7729   -3.8334   -1.3769 C.3       1 <0>        -0.1547
     13 C11        -4.6300   -3.8596   -2.6440 C.3       1 <0>        -0.0113
     14 C12        -4.0330   -4.8526   -3.6432 C.3       1 <0>        -0.1450
     15 C13        -6.0545   -4.2892   -2.2873 C.3       1 <0>        -0.1379
     16 C14        -4.6594   -2.4842   -3.2592 C.ar      1 <0>        -0.0497
     17 C15        -4.0968   -1.4150   -2.5888 C.ar      1 <0>        -0.1685
     18 C16        -4.1231   -0.1516   -3.1538 C.ar      1 <0>         0.0730
     19 C17        -4.7135    0.0427   -4.3913 C.ar      1 <0>        -0.1256
     20 C18        -5.2767   -1.0244   -5.0637 C.ar      1 <0>        -0.1702
     21 C19        -5.2459   -2.2921   -4.5012 C.ar      1 <0>         0.1157
     22 O2         -5.7948   -3.3442   -5.1644 O.3       1 <0>        -0.3031
     23 C20        -6.3816   -3.0730   -6.4388 C.3       1 <0>         0.0212
     24 F1         -3.5727    0.8930   -2.4972 F         1 <0>        -0.1393
     25 C21        -1.8069   -2.8406   -2.5566 C.3       1 <0>         0.4594
     26 F2         -0.4720   -3.0444   -2.9223 F         1 <0>        -0.1612
     27 F3         -2.5888   -2.6954   -3.7075 F         1 <0>        -0.1455
     28 F4         -1.9053   -1.6831   -1.7769 F         1 <0>        -0.1699
     29 O3         -2.1764   -5.2288   -2.5366 O.3       1 <0>        -0.5161
     30 H1          3.8184   -2.1261   -1.6068 H         1 <0>         0.0781
     31 H2          2.3527   -1.2391   -2.0898 H         1 <0>         0.0622
     32 H3          2.7802   -1.3811   -0.3678 H         1 <0>         0.0629
     33 H4          0.2043   -2.1702   -0.7232 H         1 <0>         0.1550
     34 H5         -0.0984   -6.3668   -0.9859 H         1 <0>         0.1584
     35 H6          2.3321   -7.1840   -2.7038 H         1 <0>         0.0652
     36 H7          3.4813   -6.9173   -1.3710 H         1 <0>         0.0727
     37 H8          1.9100   -7.6893   -1.0500 H         1 <0>         0.0597
     38 H9         -1.7631   -5.0884    0.0534 H         1 <0>         0.1236
     39 H10        -1.6353   -3.3165    0.1645 H         1 <0>         0.1171
     40 H11        -4.0936   -4.6293   -0.7048 H         1 <0>         0.1034
     41 H12        -3.8880   -2.8700   -0.8803 H         1 <0>         0.0976
     42 H13        -3.9192   -5.8254   -3.1648 H         1 <0>         0.0574
     43 H14        -4.6962   -4.9460   -4.5031 H         1 <0>         0.0623
     44 H15        -3.0581   -4.4939   -3.9735 H         1 <0>         0.0871
     45 H16        -6.5114   -3.5356   -1.6459 H         1 <0>         0.0548
     46 H17        -6.6416   -4.3942   -3.1997 H         1 <0>         0.0714
     47 H18        -6.0253   -5.2440   -1.7622 H         1 <0>         0.0605
     48 H19        -3.6366   -1.5650   -1.6233 H         1 <0>         0.1618
     49 H20        -4.7340    1.0291   -4.8306 H         1 <0>         0.1362
     50 H21        -5.7374   -0.8725   -6.0286 H         1 <0>         0.1372
     51 H22        -7.1874   -2.3485   -6.3210 H         1 <0>         0.0554
     52 H23        -5.6235   -2.6676   -7.1090 H         1 <0>         0.0557
     53 H24        -6.7815   -3.9960   -6.8586 H         1 <0>         0.1015
     54 H25        -2.4736   -6.0320   -2.0875 H         1 <0>         0.3912
@<TRIPOS>BOND
     1    1    2 1
     2    1   30 1
     3    1   31 1
     4    1   32 1
     5    2    7 1
     6    2    3 2
     7    3    4 1
     8    3   33 1
     9    4    5 1
    10    4   10 1
    11    5    6 2
    12    5   34 1
    13    6    7 1
    14    6    9 1
    15    7    8 2
    16    9   35 1
    17    9   36 1
    18    9   37 1
    19   10   11 1
    20   10   38 1
    21   10   39 1
    22   11   12 1
    23   11   25 1
    24   11   29 1
    25   12   13 1
    26   12   40 1
    27   12   41 1
    28   13   14 1
    29   13   15 1
    30   13   16 1
    31   14   42 1
    32   14   43 1
    33   14   44 1
    34   15   45 1
    35   15   46 1
    36   15   47 1
    37   16   21 ar
    38   16   17 ar
    39   17   18 ar
    40   17   48 1
    41   18   19 ar
    42   18   24 1
    43   19   20 ar
    44   19   49 1
    45   20   21 ar
    46   20   50 1
    47   21   22 1
    48   22   23 1
    49   23   51 1
    50   23   52 1
    51   23   53 1
    52   25   26 1
    53   25   27 1
    54   25   28 1
    55   29   54 1
@<TRIPOS>MOLECULE
CHEMBL375348
   57    58     0     0     0
SMALL
USER_CHARGES

@<TRIPOS>ATOM
      1 C1         -0.1963   -0.2005    1.5601 C.3       1 <0>        -0.1446
      2 C2         -1.6035   -0.5884    2.0186 C.3       1 <0>         0.0933
      3 H1         -1.5667   -0.9383    3.0502 H         1 <0>         0.0675
      4 C3         -2.1449   -1.7032    1.1197 C.3       1 <0>         0.0013
      5 N1         -3.5252   -2.0181    1.5158 N.3       1 <0>        -0.5281
      6 C4         -4.3812   -0.8274    1.4131 C.3       1 <0>         0.0241
      7 C5         -3.8174    0.2787    2.3090 C.3       1 <0>         0.0922
      8 H2         -3.8457   -0.0458    3.3492 H         1 <0>         0.0672
      9 O1         -2.4651    0.5498    1.9308 O.3       1 <0>        -0.3800
     10 C6         -4.6583    1.5464    2.1462 C.3       1 <0>        -0.1449
     11 C7         -4.0637   -3.1245    0.7133 C.3       1 <0>         0.0137
     12 C8         -3.4324   -4.4409    1.1709 C.3       1 <0>         0.1003
     13 C9         -4.0123   -5.5962    0.3525 C.3       1 <0>        -0.1554
     14 C10        -2.8716   -6.4574   -0.1935 C.3       1 <0>         0.0007
     15 C11        -1.8896   -6.7781    0.9350 C.3       1 <0>        -0.1482
     16 C12        -3.4416   -7.7598   -0.7591 C.3       1 <0>        -0.1400
     17 C13        -2.1541   -5.7070   -1.2857 C.ar      1 <0>        -0.0669
     18 C14        -2.6451   -4.4938   -1.7285 C.ar      1 <0>        -0.1654
     19 C15        -1.9860   -3.8039   -2.7314 C.ar      1 <0>         0.0701
     20 C16        -0.8340   -4.3288   -3.2927 C.ar      1 <0>        -0.1174
     21 C17        -0.3408   -5.5415   -2.8520 C.ar      1 <0>        -0.1703
     22 C18        -0.9973   -6.2311   -1.8430 C.ar      1 <0>         0.1295
     23 O2         -0.5099   -7.4220   -1.4044 O.3       1 <0>        -0.2985
     24 C19         0.6855   -7.9013   -2.0235 C.3       1 <0>         0.0207
     25 F1         -2.4672   -2.6178   -3.1634 F         1 <0>        -0.1379
     26 C20        -3.7358   -4.6637    2.6538 C.3       1 <0>         0.4791
     27 F2         -4.8673   -3.9242    3.0145 F         1 <0>        -0.1705
     28 F3         -3.9751   -6.0231    2.8818 F         1 <0>        -0.1783
     29 F4         -2.6426   -4.2475    3.4212 F         1 <0>        -0.1629
     30 O3         -2.0177   -4.3832    0.9775 O.3       1 <0>        -0.5217
     31 H3          0.1880    0.5943    2.1995 H         1 <0>         0.0668
     32 H4          0.4595   -1.0687    1.6258 H         1 <0>         0.0732
     33 H5         -0.2338    0.1493    0.5284 H         1 <0>         0.0614
     34 H6         -2.1307   -1.3725    0.0811 H         1 <0>         0.0404
     35 H7         -1.5234   -2.5920    1.2278 H         1 <0>         0.1148
     36 H8         -4.4028   -0.4827    0.3792 H         1 <0>         0.0454
     37 H9         -5.3921   -1.0769    1.7354 H         1 <0>         0.0876
     38 H10        -5.6893    1.3378    2.4322 H         1 <0>         0.0727
     39 H11        -4.2565    2.3334    2.7843 H         1 <0>         0.0674
     40 H12        -4.6284    1.8712    1.1062 H         1 <0>         0.0623
     41 H13        -5.1447   -3.1753    0.8437 H         1 <0>         0.1019
     42 H14        -3.8321   -2.9567   -0.3385 H         1 <0>         0.0653
     43 H15        -4.6551   -6.2051    0.9882 H         1 <0>         0.1007
     44 H16        -4.5953   -5.1969   -0.4774 H         1 <0>         0.0868
     45 H17        -2.4295   -6.8401    1.8799 H         1 <0>         0.0607
     46 H18        -1.4017   -7.7315    0.7321 H         1 <0>         0.0575
     47 H19        -1.1379   -5.9912    0.9971 H         1 <0>         0.0858
     48 H20        -4.0883   -7.5353   -1.6072 H         1 <0>         0.0529
     49 H21        -2.6241   -8.4026   -1.0857 H         1 <0>         0.0706
     50 H22        -4.0184   -8.2694    0.0128 H         1 <0>         0.0628
     51 H23        -3.5439   -4.0836   -1.2921 H         1 <0>         0.1503
     52 H24        -0.3211   -3.7899   -4.0756 H         1 <0>         0.1400
     53 H25         0.5574   -5.9508   -3.2902 H         1 <0>         0.1413
     54 H26         0.5146   -8.0305   -3.0923 H         1 <0>         0.0564
     55 H27         1.4889   -7.1812   -1.8685 H         1 <0>         0.0577
     56 H28         0.9649   -8.8579   -1.5820 H         1 <0>         0.1037
     57 H29        -1.7529   -4.0826    0.0974 H         1 <0>         0.3849
@<TRIPOS>BOND
     1    1    2 1
     2    1   31 1
     3    1   32 1
     4    1   33 1
     5    2    3 1
     6    2    9 1
     7    2    4 1
     8    4    5 1
     9    4   34 1
    10    4   35 1
    11    5    6 1
    12    5   11 1
    13    6    7 1
    14    6   36 1
    15    6   37 1
    16    7    8 1
    17    7    9 1
    18    7   10 1
    19   10   38 1
    20   10   39 1
    21   10   40 1
    22   11   12 1
    23   11   41 1
    24   11   42 1
    25   12   13 1
    26   12   26 1
    27   12   30 1
    28   13   14 1
    29   13   43 1
    30   13   44 1
    31   14   15 1
    32   14   16 1
    33   14   17 1
    34   15   45 1
    35   15   46 1
    36   15   47 1
    37   16   48 1
    38   16   49 1
    39   16   50 1
    40   17   22 ar
    41   17   18 ar
    42   18   19 ar
    43   18   51 1
    44   19   20 ar
    45   19   25 1
    46   20   21 ar
    47   20   52 1
    48   21   22 ar
    49   21   53 1
    50   22   23 1
    51   23   24 1
    52   24   54 1
    53   24   55 1
    54   24   56 1
    55   26   27 1
    56   26   28 1
    57   26   29 1
    58   30   57 1
@<TRIPOS>MOLECULE
CHEMBL375348__1
   57    58     0     0     0
SMALL
USER_CHARGES

@<TRIPOS>ATOM
      1 C1         -1.0935   -1.1353    5.3420 C.3       1 <0>        -0.1453
      2 C2         -1.3150   -2.5145    4.7179 C.3       1 <0>         0.0923
      3 H1         -0.3676   -2.8999    4.3411 H         1 <0>         0.0672
      4 C3         -2.3148   -2.3989    3.5642 C.3       1 <0>         0.0234
      5 N1         -2.5824   -3.7375    3.0186 N.3       1 <0>        -0.5264
      6 C4         -3.1153   -4.6277    4.0602 C.3       1 <0>         0.0127
      7 C5         -2.1074   -4.7209    5.2088 C.3       1 <0>         0.0914
      8 H2         -1.1833   -5.1713    4.8465 H         1 <0>         0.0668
      9 O1         -1.8350   -3.4080    5.7061 O.3       1 <0>        -0.3809
     10 C6         -2.6899   -5.5826    6.3310 C.3       1 <0>        -0.1440
     11 C7         -3.4957   -3.6650    1.8703 C.3       1 <0>         0.0233
     12 C8         -3.3751   -4.9452    1.0411 C.3       1 <0>         0.1056
     13 C9         -4.2167   -4.8110   -0.2296 C.3       1 <0>        -0.1534
     14 C10        -4.1855   -6.1303   -1.0037 C.3       1 <0>        -0.0127
     15 C11        -4.1949   -7.3004   -0.0179 C.3       1 <0>        -0.1499
     16 C12        -5.4141   -6.2183   -1.9113 C.3       1 <0>        -0.1355
     17 C13        -2.9354   -6.1908   -1.8432 C.ar      1 <0>        -0.0663
     18 C14        -2.2924   -5.0243   -2.2105 C.ar      1 <0>        -0.1315
     19 C15        -1.1438   -5.0796   -2.9812 C.ar      1 <0>         0.0670
     20 C16        -0.6380   -6.3036   -3.3855 C.ar      1 <0>        -0.1219
     21 C17        -1.2788   -7.4713   -3.0197 C.ar      1 <0>        -0.1789
     22 C18        -2.4267   -7.4176   -2.2426 C.ar      1 <0>         0.1291
     23 O2         -3.0552   -8.5664   -1.8771 O.3       1 <0>        -0.2958
     24 C19        -2.4754   -9.7936   -2.3241 C.3       1 <0>         0.0168
     25 F1         -0.5161   -3.9382   -3.3397 F         1 <0>        -0.1408
     26 C20        -1.9103   -5.1707    0.6612 C.3       1 <0>         0.4715
     27 F2         -1.1175   -5.1254    1.8130 F         1 <0>        -0.1551
     28 F3         -1.7742   -6.4219    0.0504 F         1 <0>        -0.1613
     29 F4         -1.4997   -4.1710   -0.2271 F         1 <0>        -0.1749
     30 O3         -3.8446   -6.0556    1.8083 O.3       1 <0>        -0.5235
     31 H3         -0.3827   -1.2185    6.1643 H         1 <0>         0.0674
     32 H4         -0.6986   -0.4544    4.5880 H         1 <0>         0.0726
     33 H5         -2.0412   -0.7504    5.7186 H         1 <0>         0.0621
     34 H6         -3.2442   -1.9627    3.9304 H         1 <0>         0.0438
     35 H7         -1.8971   -1.7641    2.7828 H         1 <0>         0.0852
     36 H8         -4.0575   -4.2271    4.4343 H         1 <0>         0.0383
     37 H9         -3.2819   -5.6199    3.6407 H         1 <0>         0.1125
     38 H10        -2.8997   -6.5821    5.9500 H         1 <0>         0.0734
     39 H11        -1.9719   -5.6485    7.1484 H         1 <0>         0.0659
     40 H12        -3.6132   -5.1309    6.6939 H         1 <0>         0.0610
     41 H13        -4.5202   -3.5584    2.2270 H         1 <0>         0.0623
     42 H14        -3.2349   -2.8059    1.2522 H         1 <0>         0.0941
     43 H15        -5.2455   -4.5718    0.0395 H         1 <0>         0.0939
     44 H16        -3.8096   -4.0145   -0.8526 H         1 <0>         0.0928
     45 H17        -4.9893   -7.1527    0.7137 H         1 <0>         0.0543
     46 H18        -4.3680   -8.2304   -0.5594 H         1 <0>         0.0657
     47 H19        -3.2342   -7.3516    0.4944 H         1 <0>         0.0935
     48 H20        -5.3627   -5.4365   -2.6691 H         1 <0>         0.0543
     49 H21        -5.4381   -7.1939   -2.3968 H         1 <0>         0.0639
     50 H22        -6.3168   -6.0871   -1.3146 H         1 <0>         0.0599
     51 H23        -2.6863   -4.0690   -1.8965 H         1 <0>         0.1463
     52 H24         0.2578   -6.3452   -3.9873 H         1 <0>         0.1350
     53 H25        -0.8842   -8.4258   -3.3355 H         1 <0>         0.1360
     54 H26        -2.4497   -9.8076   -3.4137 H         1 <0>         0.0540
     55 H27        -1.4605   -9.8786   -1.9356 H         1 <0>         0.0552
     56 H28        -3.0736  -10.6305   -1.9640 H         1 <0>         0.1001
     57 H29        -4.7683   -5.9805    2.0844 H         1 <0>         0.3872
@<TRIPOS>BOND
     1    1    2 1
     2    1   31 1
     3    1   32 1
     4    1   33 1
     5    2    3 1
     6    2    9 1
     7    2    4 1
     8    4    5 1
     9    4   34 1
    10    4   35 1
    11    5    6 1
    12    5   11 1
    13    6    7 1
    14    6   36 1
    15    6   37 1
    16    7    8 1
    17    7    9 1
    18    7   10 1
    19   10   38 1
    20   10   39 1
    21   10   40 1
    22   11   12 1
    23   11   41 1
    24   11   42 1
    25   12   13 1
    26   12   26 1
    27   12   30 1
    28   13   14 1
    29   13   43 1
    30   13   44 1
    31   14   15 1
    32   14   16 1
    33   14   17 1
    34   15   45 1
    35   15   46 1
    36   15   47 1
    37   16   48 1
    38   16   49 1
    39   16   50 1
    40   17   22 ar
    41   17   18 ar
    42   18   19 ar
    43   18   51 1
    44   19   20 ar
    45   19   25 1
    46   20   21 ar
    47   20   52 1
    48   21   22 ar
    49   21   53 1
    50   22   23 1
    51   23   24 1
    52   24   54 1
    53   24   55 1
    54   24   56 1
    55   26   27 1
    56   26   28 1
    57   26   29 1
    58   30   57 1
@<TRIPOS>MOLECULE
CHEMBL295475
   61    65     0     0     0
SMALL
USER_CHARGES

@<TRIPOS>ATOM
      1 C1          0.0183    1.2628   -0.0852 C.3       1 <0>        -0.1223
      2 C2         -0.0351   -0.2420   -0.0146 C.2       1 <0>        -0.0577
      3 C3         -0.1677   -0.8963   -1.1694 C.2       1 <0>        -0.1787
      4 C4         -0.2037   -2.3978   -1.2120 C.3       1 <0>         0.2137
      5 N1          0.5932   -2.9325   -0.1021 N.pl3     1 <0>        -0.7341
      6 C5          0.4863   -2.3361    1.1535 C.ar      1 <0>         0.2264
      7 C6          0.0697   -0.9874    1.2476 C.ar      1 <0>        -0.0980
      8 C7         -0.3095   -0.5138    2.4966 C.ar      1 <0>        -0.0490
      9 C8          0.1521   -1.1870    3.6370 C.ar      1 <0>        -0.0798
     10 C9          0.7260   -2.4474    3.5275 C.ar      1 <0>        -0.0433
     11 C10         0.8725   -3.0301    2.2843 C.ar      1 <0>        -0.1893
     12 C11         0.0661   -0.5053    4.9501 C.ar      1 <0>        -0.1418
     13 C12        -0.8711    0.5313    5.0731 C.ar      1 <0>         0.1711
     14 C13        -1.0049    1.2070    6.2739 C.ar      1 <0>        -0.1819
     15 C14        -0.2254    0.8531    7.3593 C.ar      1 <0>        -0.0460
     16 C15         0.6965   -0.1686    7.2478 C.ar      1 <0>        -0.2400
     17 C16         0.8537   -0.8446    6.0423 C.ar      1 <0>         0.1703
     18 O1          1.8064   -1.8103    5.9624 O.3       1 <0>        -0.3096
     19 C17         2.5590   -2.0787    7.1471 C.3       1 <0>         0.0241
     20 O2         -1.6475    0.8453    4.0185 O.3       1 <0>        -0.3018
     21 C18        -1.1905    0.6889    2.6794 C.3       1 <0>         0.1508
     22 C19        -2.4467    0.5163    1.8232 C.3       1 <0>        -0.0452
     23 C20        -3.2865    1.7968    1.8773 C.3       1 <0>        -0.1128
     24 C21        -4.6058    1.5709    1.1371 C.3       1 <0>        -0.1179
     25 C22        -5.4213    0.4901    1.8488 C.3       1 <0>        -0.1154
     26 C23        -4.6618   -0.8396    1.7936 C.3       1 <0>        -0.0820
     27 C24        -3.2771   -0.6266    2.3640 C.2       1 <0>        -0.1161
     28 C25        -2.8088   -1.4120    3.3021 C.2       1 <0>        -0.1983
     29 C26         0.3821   -2.8851   -2.5392 C.3       1 <0>        -0.1531
     30 C27        -1.6489   -2.8827   -1.0873 C.3       1 <0>        -0.1576
     31 H1          0.5629    1.6479    0.7769 H         1 <0>         0.0650
     32 H2          0.5263    1.5658   -1.0008 H         1 <0>         0.0708
     33 H3         -0.9956    1.6629   -0.0828 H         1 <0>         0.0740
     34 H4         -0.2502   -0.3309   -2.0849 H         1 <0>         0.1232
     35 H5          1.1855   -3.6909   -0.2403 H         1 <0>         0.4018
     36 H6          1.0326   -2.9988    4.4018 H         1 <0>         0.1355
     37 H7          1.2872   -4.0237    2.1954 H         1 <0>         0.1245
     38 H8         -1.7203    2.0116    6.3623 H         1 <0>         0.1336
     39 H9         -0.3388    1.3768    8.2966 H         1 <0>         0.1328
     40 H10         1.3007   -0.4472    8.0988 H         1 <0>         0.1326
     41 H11         1.8844   -2.3978    7.9416 H         1 <0>         0.0577
     42 H12         3.2832   -2.8683    6.9464 H         1 <0>         0.1012
     43 H13         3.0835   -1.1748    7.4570 H         1 <0>         0.0576
     44 H14        -0.6686    1.5935    2.3821 H         1 <0>         0.0867
     45 H15        -2.1611    0.3056    0.7926 H         1 <0>         0.1034
     46 H16        -3.4920    2.0531    2.9166 H         1 <0>         0.0754
     47 H17        -2.7385    2.6112    1.4033 H         1 <0>         0.0631
     48 H18        -5.1746    2.5006    1.1185 H         1 <0>         0.0642
     49 H19        -4.3982    1.2540    0.1150 H         1 <0>         0.0610
     50 H20        -5.5762    0.7773    2.8887 H         1 <0>         0.0640
     51 H21        -6.3863    0.3783    1.3546 H         1 <0>         0.0624
     52 H22        -5.1901   -1.5878    2.3846 H         1 <0>         0.0660
     53 H23        -4.5841   -1.1742    0.7591 H         1 <0>         0.0663
     54 H24        -1.8642   -1.1858    3.7741 H         1 <0>         0.1218
     55 H25        -3.3675   -2.2858    3.6034 H         1 <0>         0.0874
     56 H26         1.4135   -2.5439   -2.6282 H         1 <0>         0.0628
     57 H27         0.3558   -3.9743   -2.5698 H         1 <0>         0.0631
     58 H28        -0.2058   -2.4841   -3.3649 H         1 <0>         0.0741
     59 H29        -2.2385   -2.4837   -1.9126 H         1 <0>         0.0650
     60 H30        -1.6705   -3.9721   -1.1186 H         1 <0>         0.0587
     61 H31        -2.0675   -2.5380   -0.1417 H         1 <0>         0.0598
@<TRIPOS>BOND
     1    1    2 1
     2    1   31 1
     3    1   32 1
     4    1   33 1
     5    2    7 1
     6    2    3 2
     7    3    4 1
     8    3   34 1
     9    4    5 1
    10    4   29 1
    11    4   30 1
    12    5    6 1
    13    5   35 1
    14    6   11 ar
    15    6    7 ar
    16    7    8 ar
    17    8   21 1
    18    8    9 ar
    19    9   10 ar
    20    9   12 1
    21   10   11 ar
    22   10   36 1
    23   11   37 1
    24   12   17 ar
    25   12   13 ar
    26   13   14 ar
    27   13   20 1
    28   14   15 ar
    29   14   38 1
    30   15   16 ar
    31   15   39 1
    32   16   17 ar
    33   16   40 1
    34   17   18 1
    35   18   19 1
    36   19   41 1
    37   19   42 1
    38   19   43 1
    39   20   21 1
    40   21   22 1
    41   21   44 1
    42   22   27 1
    43   22   23 1
    44   22   45 1
    45   23   24 1
    46   23   46 1
    47   23   47 1
    48   24   25 1
    49   24   48 1
    50   24   49 1
    51   25   26 1
    52   25   50 1
    53   25   51 1
    54   26   27 1
    55   26   52 1
    56   26   53 1
    57   27   28 2
    58   28   54 1
    59   28   55 1
    60   29   56 1
    61   29   57 1
    62   29   58 1
    63   30   59 1
    64   30   60 1
    65   30   61 1
@<TRIPOS>MOLECULE
CHEMBL295475__1
   61    65     0     0     0
SMALL
USER_CHARGES

@<TRIPOS>ATOM
      1 C1          0.0494    1.2528    0.0023 C.3       1 <0>        -0.1219
      2 C2         -0.0055   -0.2508    0.0953 C.2       1 <0>        -0.0571
      3 C3         -0.1075   -0.9234   -1.0520 C.2       1 <0>        -0.1791
      4 C4         -0.1421   -2.4254   -1.0717 C.3       1 <0>         0.2135
      5 N1          0.6255   -2.9419    0.0671 N.pl3     1 <0>        -0.7343
      6 C5          0.4855   -2.3257    1.3099 C.ar      1 <0>         0.2223
      7 C6          0.0663   -0.9760    1.3715 C.ar      1 <0>        -0.0977
      8 C7         -0.3457   -0.4829    2.6024 C.ar      1 <0>        -0.0567
      9 C8          0.0859   -1.1376    3.7651 C.ar      1 <0>        -0.0748
     10 C9          0.6629   -2.3991    3.6908 C.ar      1 <0>        -0.0448
     11 C10         0.8421   -3.0015    2.4612 C.ar      1 <0>        -0.1874
     12 C11        -0.0347   -0.4352    5.0646 C.ar      1 <0>        -0.1404
     13 C12        -0.9751    0.6026    5.1464 C.ar      1 <0>         0.1715
     14 C13        -1.1405    1.2972    6.3324 C.ar      1 <0>        -0.1823
     15 C14        -0.3897    0.9611    7.4434 C.ar      1 <0>        -0.0465
     16 C15         0.5350   -0.0617    7.3724 C.ar      1 <0>        -0.2404
     17 C16         0.7240   -0.7566    6.1823 C.ar      1 <0>         0.1692
     18 O1          1.6787   -1.7228    6.1428 O.3       1 <0>        -0.3102
     19 C17         2.4000   -1.9719    7.3510 C.3       1 <0>         0.0244
     20 O2         -1.7236    0.8993    4.0669 O.3       1 <0>        -0.2998
     21 C18        -1.2315    0.7221    2.7430 C.3       1 <0>         0.1520
     22 C19        -2.4647    0.5350    1.8569 C.3       1 <0>        -0.0449
     23 C20        -3.3111   -0.6253    2.3911 C.3       1 <0>        -0.1055
     24 C21        -4.6102   -0.7180    1.5889 C.3       1 <0>        -0.1178
     25 C22        -5.4388    0.5510    1.7954 C.3       1 <0>        -0.1167
     26 C23        -4.6725    1.7555    1.2387 C.3       1 <0>        -0.0832
     27 C24        -3.3037    1.7934    1.8815 C.2       1 <0>        -0.1151
     28 C25        -2.8565    2.8880    2.4454 C.2       1 <0>        -0.1869
     29 C26         0.4785   -2.9333   -2.3751 C.3       1 <0>        -0.1532
     30 C27        -1.5899   -2.9092   -0.9773 C.3       1 <0>        -0.1577
     31 H1          0.5702    1.6519    0.8727 H         1 <0>         0.0641
     32 H2          0.5820    1.5415   -0.9038 H         1 <0>         0.0705
     33 H3         -0.9643    1.6522   -0.0293 H         1 <0>         0.0748
     34 H4         -0.1661   -0.3727   -1.9783 H         1 <0>         0.1233
     35 H5          1.2215   -3.7020   -0.0435 H         1 <0>         0.4019
     36 H6          0.9465   -2.9365    4.5815 H         1 <0>         0.1355
     37 H7          1.2592   -3.9960    2.3991 H         1 <0>         0.1249
     38 H8         -1.8582    2.1026    6.3892 H         1 <0>         0.1334
     39 H9         -0.5279    1.4995    8.3689 H         1 <0>         0.1324
     40 H10         1.1168   -0.3263    8.2433 H         1 <0>         0.1322
     41 H11         1.7049   -2.2788    8.1325 H         1 <0>         0.0576
     42 H12         3.1294   -2.7641    7.1819 H         1 <0>         0.1011
     43 H13         2.9159   -1.0629    7.6601 H         1 <0>         0.0575
     44 H14        -0.7021    1.6221    2.4452 H         1 <0>         0.0865
     45 H15        -2.1521    0.3234    0.8343 H         1 <0>         0.1018
     46 H16        -2.7548   -1.5573    2.2910 H         1 <0>         0.0610
     47 H17        -3.5441   -0.4517    3.4416 H         1 <0>         0.0728
     48 H18        -4.3752   -0.8291    0.5304 H         1 <0>         0.0604
     49 H19        -5.1823   -1.5829    1.9247 H         1 <0>         0.0623
     50 H20        -6.3905    0.4527    1.2731 H         1 <0>         0.0625
     51 H21        -5.6215    0.6967    2.8600 H         1 <0>         0.0640
     52 H22        -4.5671    1.6550    0.1585 H         1 <0>         0.0714
     53 H23        -5.2125    2.6730    1.4729 H         1 <0>         0.0690
     54 H24        -1.8452    2.9268    2.8225 H         1 <0>         0.0993
     55 H25        -3.4991    3.7516    2.5333 H         1 <0>         0.0976
     56 H26         1.5118   -2.5929   -2.4424 H         1 <0>         0.0628
     57 H27         0.4533   -4.0229   -2.3891 H         1 <0>         0.0632
     58 H28        -0.0876   -2.5459   -3.2222 H         1 <0>         0.0743
     59 H29        -2.1578   -2.5238   -1.8241 H         1 <0>         0.0657
     60 H30        -1.6105   -3.9990   -0.9919 H         1 <0>         0.0592
     61 H31        -2.0333   -2.5499   -0.0487 H         1 <0>         0.0587
@<TRIPOS>BOND
     1    1    2 1
     2    1   31 1
     3    1   32 1
     4    1   33 1
     5    2    7 1
     6    2    3 2
     7    3    4 1
     8    3   34 1
     9    4    5 1
    10    4   29 1
    11    4   30 1
    12    5    6 1
    13    5   35 1
    14    6   11 ar
    15    6    7 ar
    16    7    8 ar
    17    8   21 1
    18    8    9 ar
    19    9   10 ar
    20    9   12 1
    21   10   11 ar
    22   10   36 1
    23   11   37 1
    24   12   17 ar
    25   12   13 ar
    26   13   14 ar
    27   13   20 1
    28   14   15 ar
    29   14   38 1
    30   15   16 ar
    31   15   39 1
    32   16   17 ar
    33   16   40 1
    34   17   18 1
    35   18   19 1
    36   19   41 1
    37   19   42 1
    38   19   43 1
    39   20   21 1
    40   21   22 1
    41   21   44 1
    42   22   27 1
    43   22   23 1
    44   22   45 1
    45   23   24 1
    46   23   46 1
    47   23   47 1
    48   24   25 1
    49   24   48 1
    50   24   49 1
    51   25   26 1
    52   25   50 1
    53   25   51 1
    54   26   27 1
    55   26   52 1
    56   26   53 1
    57   27   28 2
    58   28   54 1
    59   28   55 1
    60   29   56 1
    61   29   57 1
    62   29   58 1
    63   30   59 1
    64   30   60 1
    65   30   61 1
@<TRIPOS>MOLECULE
CHEMBL295475__2
   61    65     0     0     0
SMALL
USER_CHARGES

@<TRIPOS>ATOM
      1 C1          0.0482    1.3938    0.0314 C.3       1 <0>        -0.1215
      2 C2          0.0525   -0.1118    0.0726 C.2       1 <0>        -0.0614
      3 C3         -0.0249   -0.7255   -1.1111 C.2       1 <0>        -0.1771
      4 C4         -0.0142   -2.2221   -1.2240 C.3       1 <0>         0.2127
      5 N1          0.7372   -2.7853   -0.0987 N.pl3     1 <0>        -0.7367
      6 C5          0.5562   -2.2469    1.1751 C.ar      1 <0>         0.2209
      7 C6          0.1454   -0.8991    1.3123 C.ar      1 <0>        -0.0901
      8 C7         -0.1972   -0.4495    2.5786 C.ar      1 <0>        -0.0559
      9 C8          0.0745   -1.2501    3.7023 C.ar      1 <0>        -0.0724
     10 C9          0.6185   -2.5188    3.5496 C.ar      1 <0>        -0.0464
     11 C10         0.8562   -3.0138    2.2844 C.ar      1 <0>        -0.1859
     12 C11        -0.2647   -0.7232    5.0458 C.ar      1 <0>        -0.1235
     13 C12        -1.2445    0.2819    5.1111 C.ar      1 <0>         0.1688
     14 C13        -1.6351    0.7998    6.3292 C.ar      1 <0>        -0.1798
     15 C14        -1.0552    0.3313    7.4951 C.ar      1 <0>        -0.0514
     16 C15        -0.0833   -0.6482    7.4423 C.ar      1 <0>        -0.2334
     17 C16         0.3213   -1.1748    6.2202 C.ar      1 <0>         0.1598
     18 O1          1.3093   -2.1076    6.2085 O.3       1 <0>        -0.3095
     19 C17         1.8436   -2.5026    7.4736 C.3       1 <0>         0.0245
     20 O2         -1.7782    0.7342    3.9460 O.3       1 <0>        -0.2988
     21 C18        -0.8567    0.8769    2.8507 C.3       1 <0>         0.1389
     22 C19         0.1974    1.9103    3.2531 C.3       1 <0>        -0.0742
     23 C20         1.0238    1.3726    4.4261 C.3       1 <0>        -0.1463
     24 C21         1.9798    2.4617    4.9156 C.3       1 <0>        -0.1157
     25 C22         1.1807    3.6474    5.4589 C.3       1 <0>        -0.1147
     26 C23         0.3602    4.2707    4.3248 C.3       1 <0>        -0.0827
     27 C24        -0.4845    3.1877    3.6909 C.2       1 <0>        -0.1162
     28 C25        -1.7736    3.3519    3.5250 C.2       1 <0>        -0.1895
     29 C26         0.6552   -2.6309   -2.5386 C.3       1 <0>        -0.1527
     30 C27        -1.4491   -2.7521   -1.2012 C.3       1 <0>        -0.1578
     31 H1          0.9258    1.7741    0.5542 H         1 <0>         0.0699
     32 H2          0.0695    1.7289   -1.0056 H         1 <0>         0.0702
     33 H3         -0.8537    1.7679    0.5157 H         1 <0>         0.0706
     34 H4         -0.0971   -0.1208   -2.0036 H         1 <0>         0.1235
     35 H5          1.3539   -3.5249   -0.2373 H         1 <0>         0.4019
     36 H6          0.8372   -3.1378    4.4053 H         1 <0>         0.1359
     37 H7          1.2778   -4.0016    2.1594 H         1 <0>         0.1252
     38 H8         -2.3911    1.5699    6.3761 H         1 <0>         0.1336
     39 H9         -1.3640    0.7342    8.4476 H         1 <0>         0.1318
     40 H10         0.3685   -1.0102    8.3546 H         1 <0>         0.1320
     41 H11         1.0486   -2.9258    8.0876 H         1 <0>         0.0572
     42 H12         2.6223   -3.2501    7.3217 H         1 <0>         0.1010
     43 H13         2.2675   -1.6334    7.9764 H         1 <0>         0.0572
     44 H14        -1.4290    1.2148    1.9979 H         1 <0>         0.1275
     45 H15         0.8507    2.1162    2.4052 H         1 <0>         0.0939
     46 H16         0.3568    1.0826    5.2380 H         1 <0>         0.0977
     47 H17         1.5975    0.5053    4.0992 H         1 <0>         0.0705
     48 H18         2.6133    2.0591    5.7060 H         1 <0>         0.0598
     49 H19         2.6043    2.7949    4.0867 H         1 <0>         0.0575
     50 H20         0.5100    3.3035    6.2463 H         1 <0>         0.0631
     51 H21         1.8655    4.3923    5.8640 H         1 <0>         0.0618
     52 H22        -0.2862    5.0510    4.7266 H         1 <0>         0.0685
     53 H23         1.0311    4.6956    3.5783 H         1 <0>         0.0688
     54 H24        -2.3756    2.5431    3.1380 H         1 <0>         0.1098
     55 H25        -2.2342    4.2962    3.7751 H         1 <0>         0.0956
     56 H26         1.6794   -2.2583   -2.5560 H         1 <0>         0.0628
     57 H27         0.6626   -3.7178   -2.6198 H         1 <0>         0.0632
     58 H28         0.1003   -2.2077   -3.3759 H         1 <0>         0.0742
     59 H29        -2.0054   -2.3308   -2.0386 H         1 <0>         0.0659
     60 H30        -1.4363   -3.8389   -1.2834 H         1 <0>         0.0596
     61 H31        -1.9280   -2.4641   -0.2653 H         1 <0>         0.0574
@<TRIPOS>BOND
     1    1    2 1
     2    1   31 1
     3    1   32 1
     4    1   33 1
     5    2    7 1
     6    2    3 2
     7    3    4 1
     8    3   34 1
     9    4    5 1
    10    4   29 1
    11    4   30 1
    12    5    6 1
    13    5   35 1
    14    6   11 ar
    15    6    7 ar
    16    7    8 ar
    17    8   21 1
    18    8    9 ar
    19    9   10 ar
    20    9   12 1
    21   10   11 ar
    22   10   36 1
    23   11   37 1
    24   12   17 ar
    25   12   13 ar
    26   13   14 ar
    27   13   20 1
    28   14   15 ar
    29   14   38 1
    30   15   16 ar
    31   15   39 1
    32   16   17 ar
    33   16   40 1
    34   17   18 1
    35   18   19 1
    36   19   41 1
    37   19   42 1
    38   19   43 1
    39   20   21 1
    40   21   22 1
    41   21   44 1
    42   22   27 1
    43   22   23 1
    44   22   45 1
    45   23   24 1
    46   23   46 1
    47   23   47 1
    48   24   25 1
    49   24   48 1
    50   24   49 1
    51   25   26 1
    52   25   50 1
    53   25   51 1
    54   26   27 1
    55   26   52 1
    56   26   53 1
    57   27   28 2
    58   28   54 1
    59   28   55 1
    60   29   56 1
    61   29   57 1
    62   29   58 1
    63   30   59 1
    64   30   60 1
    65   30   61 1
@<TRIPOS>MOLECULE
CHEMBL295475__3
   61    65     0     0     0
SMALL
USER_CHARGES

@<TRIPOS>ATOM
      1 C1          0.0467    1.3839    0.0408 C.3       1 <0>        -0.1498
      2 C2          0.0570   -0.1215    0.0861 C.2       1 <0>        -0.0587
      3 C3         -0.0200   -0.7390   -1.0956 C.2       1 <0>        -0.1782
      4 C4         -0.0048   -2.2359   -1.2043 C.3       1 <0>         0.2130
      5 N1          0.7505   -2.7935   -0.0788 N.pl3     1 <0>        -0.7364
      6 C5          0.5717   -2.2515    1.1937 C.ar      1 <0>         0.2209
      7 C6          0.1558   -0.9049    1.3278 C.ar      1 <0>        -0.0889
      8 C7         -0.1855   -0.4531    2.5935 C.ar      1 <0>        -0.0550
      9 C8          0.0927   -1.2488    3.7191 C.ar      1 <0>        -0.0748
     10 C9          0.6427   -2.5153    3.5689 C.ar      1 <0>        -0.0450
     11 C10         0.8786   -3.0135    2.3045 C.ar      1 <0>        -0.1862
     12 C11        -0.2479   -0.7206    5.0617 C.ar      1 <0>        -0.1290
     13 C12        -1.2340    0.2786    5.1256 C.ar      1 <0>         0.1556
     14 C13        -1.6278    0.7957    6.3431 C.ar      1 <0>        -0.1707
     15 C14        -1.0442    0.3332    7.5096 C.ar      1 <0>        -0.0523
     16 C15        -0.0649   -0.6390    7.4580 C.ar      1 <0>        -0.2328
     17 C16         0.3426   -1.1651    6.2365 C.ar      1 <0>         0.1636
     18 O1          1.3383   -2.0898    6.2257 O.3       1 <0>        -0.3104
     19 C17         1.8768   -2.4781    7.4911 C.3       1 <0>         0.0245
     20 O2         -1.7700    0.7268    3.9601 O.3       1 <0>        -0.2974
     21 C18        -0.8501    0.8711    2.8636 C.3       1 <0>         0.1393
     22 C19         0.2001    1.9097    3.2625 C.3       1 <0>        -0.0709
     23 C20         1.0989    2.2205    2.0611 C.3       1 <0>        -0.1617
     24 C21         2.0546    3.3588    2.4224 C.3       1 <0>        -0.1197
     25 C22         1.2586    4.6337    2.7066 C.3       1 <0>        -0.1163
     26 C23         0.3659    4.4137    3.9324 C.3       1 <0>        -0.0838
     27 C24        -0.4864    3.1872    3.6927 C.2       1 <0>        -0.1211
     28 C25        -1.7858    3.2303    3.8531 C.2       1 <0>        -0.2061
     29 C26        -1.4381   -2.7702   -1.1774 C.3       1 <0>        -0.1578
     30 C27         0.6633   -2.6462   -2.5191 C.3       1 <0>        -0.1527
     31 H1          1.0700    1.7559    0.0912 H         1 <0>         0.0908
     32 H2         -0.4154    1.7163   -0.8888 H         1 <0>         0.0661
     33 H3         -0.5219    1.7690    0.8872 H         1 <0>         0.0907
     34 H4         -0.0952   -0.1371   -1.9898 H         1 <0>         0.1233
     35 H5          1.3684   -3.5322   -0.2168 H         1 <0>         0.4018
     36 H6          0.8686   -3.1298    4.4259 H         1 <0>         0.1354
     37 H7          1.3033   -4.0002    2.1811 H         1 <0>         0.1251
     38 H8         -2.3897    1.5600    6.3892 H         1 <0>         0.1338
     39 H9         -1.3561    0.7348    8.4617 H         1 <0>         0.1320
     40 H10         0.3906   -0.9954    8.3705 H         1 <0>         0.1319
     41 H11         1.0858   -2.9066    8.1065 H         1 <0>         0.0575
     42 H12         2.6615   -3.2194    7.3400 H         1 <0>         0.1013
     43 H13         2.2939   -1.6045    7.9920 H         1 <0>         0.0571
     44 H14        -1.4248    1.2052    2.0108 H         1 <0>         0.1286
     45 H15         0.8032    1.5236    4.0843 H         1 <0>         0.0843
     46 H16         1.6740    1.3327    1.7980 H         1 <0>         0.0709
     47 H17         0.4822    2.5188    1.2133 H         1 <0>         0.1184
     48 H18         2.6270    3.0839    3.3083 H         1 <0>         0.0577
     49 H19         2.7377    3.5359    1.5916 H         1 <0>         0.0628
     50 H20         1.9469    5.4562    2.9011 H         1 <0>         0.0619
     51 H21         0.6382    4.8749    1.8436 H         1 <0>         0.0632
     52 H22         0.9869    4.2612    4.8151 H         1 <0>         0.0688
     53 H23        -0.2759    5.2826    4.0786 H         1 <0>         0.0680
     54 H24        -2.3736    2.3308    3.7439 H         1 <0>         0.1338
     55 H25        -2.2694    4.1653    4.0946 H         1 <0>         0.0914
     56 H26        -1.9971   -2.3531   -2.0150 H         1 <0>         0.0659
     57 H27        -1.4221   -3.8572   -1.2566 H         1 <0>         0.0594
     58 H28        -1.9161   -2.4810   -0.2415 H         1 <0>         0.0575
     59 H29         1.6863   -2.2703   -2.5395 H         1 <0>         0.0628
     60 H30         0.6740   -3.7333   -2.5974 H         1 <0>         0.0630
     61 H31         0.1054   -2.2270   -3.3564 H         1 <0>         0.0741
@<TRIPOS>BOND
     1    1    2 1
     2    1   31 1
     3    1   32 1
     4    1   33 1
     5    2    7 1
     6    2    3 2
     7    3    4 1
     8    3   34 1
     9    4    5 1
    10    4   29 1
    11    4   30 1
    12    5    6 1
    13    5   35 1
    14    6   11 ar
    15    6    7 ar
    16    7    8 ar
    17    8   21 1
    18    8    9 ar
    19    9   10 ar
    20    9   12 1
    21   10   11 ar
    22   10   36 1
    23   11   37 1
    24   12   17 ar
    25   12   13 ar
    26   13   14 ar
    27   13   20 1
    28   14   15 ar
    29   14   38 1
    30   15   16 ar
    31   15   39 1
    32   16   17 ar
    33   16   40 1
    34   17   18 1
    35   18   19 1
    36   19   41 1
    37   19   42 1
    38   19   43 1
    39   20   21 1
    40   21   22 1
    41   21   44 1
    42   22   27 1
    43   22   23 1
    44   22   45 1
    45   23   24 1
    46   23   46 1
    47   23   47 1
    48   24   25 1
    49   24   48 1
    50   24   49 1
    51   25   26 1
    52   25   50 1
    53   25   51 1
    54   26   27 1
    55   26   52 1
    56   26   53 1
    57   27   28 2
    58   28   54 1
    59   28   55 1
    60   29   56 1
    61   29   57 1
    62   29   58 1
    63   30   59 1
    64   30   60 1
    65   30   61 1
@<TRIPOS>MOLECULE
CHEMBL583859
   57    61     0     0     0
SMALL
USER_CHARGES

@<TRIPOS>ATOM
      1 C1         -1.3280    1.7471   -0.5216 C.3       1 <0>        -0.1954
      2 C2         -1.4284    0.2231   -0.4315 C.3       1 <0>        -0.0395
      3 C3         -2.6202   -0.2281   -1.2899 C.3       1 <0>         0.0382
      4 N1         -3.7114   -0.9390   -0.6112 N.pl3     1 <0>        -0.3992
      5 C4         -4.8894   -1.4269   -1.0543 C.cat     1 <0>         0.2852
      6 N2         -5.5347   -1.9726   -0.0607 N.pl3     1 <0>        -0.4634
      7 C5         -4.8041   -1.8663    1.0645 C.2       1 <0>         0.0898
      8 C6         -3.6271   -1.2105    0.7328 C.2       1 <0>         0.1073
      9 C7         -2.4621   -0.8334    1.5345 C.2       1 <0>        -0.1318
     10 C8         -1.4398   -0.1615    1.0324 C.2       1 <0>        -0.0268
     11 C9         -0.2438    0.1903    1.8827 C.3       1 <0>        -0.0899
     12 C10         1.0137   -0.3528    1.1926 C.3       1 <0>        -0.1197
     13 C11         1.0610    0.1522   -0.2503 C.3       1 <0>        -0.1248
     14 C12        -0.1500   -0.3669   -1.0279 C.3       1 <0>        -0.1044
     15 H1         -0.1860   -1.4543   -0.9610 H         1 <0>         0.1029
     16 C13        -0.0315    0.0506   -2.4950 C.3       1 <0>         0.1857
     17 C14         1.1470   -0.6814   -3.1400 C.3       1 <0>        -0.1388
     18 C15        -1.3025   -0.3046   -3.2226 C.ar      1 <0>         0.1138
     19 C16        -2.2015    0.6918   -3.5536 C.ar      1 <0>        -0.1819
     20 C17        -3.3677    0.3544   -4.2229 C.ar      1 <0>        -0.0751
     21 C18        -3.5870   -0.9786   -4.5357 C.ar      1 <0>        -0.1819
     22 C19        -2.6427   -1.9197   -4.1724 C.ar      1 <0>         0.1005
     23 N3         -1.5416   -1.5616   -3.5409 N.ar      1 <0>        -0.4773
     24 O1          0.1836    1.4612   -2.5729 O.3       1 <0>        -0.5595
     25 C20        -5.1858   -2.3580    2.4083 C.ar      1 <0>        -0.0756
     26 C21        -5.0050   -1.5459    3.5280 C.ar      1 <0>        -0.0510
     27 C22        -5.3622   -2.0085    4.7776 C.ar      1 <0>        -0.1473
     28 C23        -5.8993   -3.2777    4.9216 C.ar      1 <0>         0.1374
     29 C24        -6.0805   -4.0884    3.8125 C.ar      1 <0>        -0.1470
     30 C25        -5.7327   -3.6325    2.5579 C.ar      1 <0>        -0.0632
     31 F1         -6.2471   -3.7264    6.1475 F         1 <0>        -0.1226
     32 H2         -0.3030    2.0565   -0.3170 H         1 <0>         0.1034
     33 H3         -1.6125    2.0714   -1.5226 H         1 <0>         0.0855
     34 H4         -1.9970    2.1993    0.2106 H         1 <0>         0.0852
     35 H5         -3.0429    0.6565   -1.7662 H         1 <0>         0.1247
     36 H6         -2.2379   -0.8767   -2.0780 H         1 <0>         0.1618
     37 H7         -5.2430   -1.3735   -2.0733 H         1 <0>         0.2558
     38 H8         -2.4460   -1.0965    2.5818 H         1 <0>         0.1556
     39 H9         -0.1695    1.2731    1.9825 H         1 <0>         0.0953
     40 H10        -0.3472   -0.2638    2.8682 H         1 <0>         0.0910
     41 H11         1.8990   -0.0087    1.7273 H         1 <0>         0.0867
     42 H12         0.9879   -1.4425    1.1956 H         1 <0>         0.0728
     43 H13         1.0520    1.2421   -0.2524 H         1 <0>         0.0794
     44 H14         1.9754   -0.2010   -0.7271 H         1 <0>         0.0903
     45 H15         1.0369   -1.7547   -2.9850 H         1 <0>         0.0830
     46 H16         1.1658   -0.4688   -4.2089 H         1 <0>         0.0680
     47 H17         2.0780   -0.3424   -2.6856 H         1 <0>         0.0765
     48 H18        -1.9981    1.7202   -3.2938 H         1 <0>         0.1491
     49 H19        -4.0884    1.1117   -4.4940 H         1 <0>         0.1470
     50 H20        -4.4848   -1.2776   -5.0563 H         1 <0>         0.1474
     51 H21        -2.8061   -2.9600   -4.4123 H         1 <0>         0.1679
     52 H22        -0.1908    1.9576   -1.8324 H         1 <0>         0.3812
     53 H23        -4.5858   -0.5568    3.4169 H         1 <0>         0.1427
     54 H24        -5.2226   -1.3805    5.6451 H         1 <0>         0.1522
     55 H25        -6.4988   -5.0771    3.9301 H         1 <0>         0.1511
     56 H26        -5.8787   -4.2633    1.6935 H         1 <0>         0.1374
     57 H27        -6.4077   -2.3907   -0.1231 H         1 <0>         0.4648
@<TRIPOS>BOND
     1    1    2 1
     2    1   32 1
     3    1   33 1
     4    1   34 1
     5    2   10 1
     6    2   14 1
     7    2    3 1
     8    3    4 1
     9    3   35 1
    10    3   36 1
    11    4    8 1
    12    4    5 1
    13    5    6 2
    14    5   37 1
    15    6    7 1
    16    6   57 1
    17    7    8 2
    18    7   25 1
    19    8    9 1
    20    9   10 2
    21    9   38 1
    22   10   11 1
    23   11   12 1
    24   11   39 1
    25   11   40 1
    26   12   13 1
    27   12   41 1
    28   12   42 1
    29   13   14 1
    30   13   43 1
    31   13   44 1
    32   14   15 1
    33   14   16 1
    34   16   17 1
    35   16   18 1
    36   16   24 1
    37   17   45 1
    38   17   46 1
    39   17   47 1
    40   18   23 ar
    41   18   19 ar
    42   19   20 ar
    43   19   48 1
    44   20   21 ar
    45   20   49 1
    46   21   22 ar
    47   21   50 1
    48   22   23 ar
    49   22   51 1
    50   24   52 1
    51   25   30 ar
    52   25   26 ar
    53   26   27 ar
    54   26   53 1
    55   27   28 ar
    56   27   54 1
    57   28   29 ar
    58   28   31 1
    59   29   30 ar
    60   29   55 1
    61   30   56 1
@<TRIPOS>MOLECULE
CHEMBL583859__1
   56    60     0     0     0
SMALL
USER_CHARGES

@<TRIPOS>ATOM
      1 C1         -1.3280    1.7471   -0.5216 C.3       1 <0>        -0.1882
      2 C2         -1.4284    0.2231   -0.4315 C.3       1 <0>        -0.0247
      3 C3         -2.6202   -0.2281   -1.2899 C.3       1 <0>         0.0533
      4 N1         -3.7114   -0.9390   -0.6112 N.pl3     1 <0>        -0.4431
      5 C4         -4.8894   -1.4269   -1.0543 C.2       1 <0>         0.2002
      6 N2         -5.5347   -1.9726   -0.0607 N.2       1 <0>        -0.4710
      7 C5         -4.8041   -1.8663    1.0645 C.2       1 <0>         0.0583
      8 C6         -3.6271   -1.2105    0.7328 C.2       1 <0>         0.0165
      9 C7         -2.4621   -0.8334    1.5345 C.2       1 <0>        -0.0817
     10 C8         -1.4398   -0.1615    1.0324 C.2       1 <0>        -0.1006
     11 C9         -0.2438    0.1903    1.8827 C.3       1 <0>        -0.0776
     12 C10         1.0137   -0.3528    1.1926 C.3       1 <0>        -0.1172
     13 C11         1.0610    0.1522   -0.2503 C.3       1 <0>        -0.1196
     14 C12        -0.1500   -0.3669   -1.0279 C.3       1 <0>        -0.1022
     15 H1         -0.1860   -1.4543   -0.9610 H         1 <0>         0.0968
     16 C13        -0.0315    0.0506   -2.4950 C.3       1 <0>         0.1864
     17 C14         1.1470   -0.6814   -3.1400 C.3       1 <0>        -0.1348
     18 C15        -1.3025   -0.3046   -3.2226 C.ar      1 <0>         0.1238
     19 C16        -2.2015    0.6918   -3.5536 C.ar      1 <0>        -0.1774
     20 C17        -3.3677    0.3544   -4.2229 C.ar      1 <0>        -0.0751
     21 C18        -3.5870   -0.9786   -4.5357 C.ar      1 <0>        -0.1773
     22 C19        -2.6427   -1.9197   -4.1724 C.ar      1 <0>         0.1044
     23 N3         -1.5416   -1.5616   -3.5409 N.ar      1 <0>        -0.4818
     24 O1          0.1836    1.4612   -2.5729 O.3       1 <0>        -0.5667
     25 C20        -5.1858   -2.3580    2.4083 C.ar      1 <0>        -0.0075
     26 C21        -4.2118   -2.8548    3.2745 C.ar      1 <0>        -0.0826
     27 C22        -4.5725   -3.3116    4.5252 C.ar      1 <0>        -0.1508
     28 C23        -5.8999   -3.2780    4.9213 C.ar      1 <0>         0.0971
     29 C24        -6.8713   -2.7859    4.0644 C.ar      1 <0>        -0.1514
     30 C25        -6.5199   -2.3206    2.8142 C.ar      1 <0>        -0.0650
     31 F1         -6.2482   -3.7269    6.1470 F         1 <0>        -0.1395
     32 H2         -0.3030    2.0565   -0.3170 H         1 <0>         0.0908
     33 H3         -1.6125    2.0714   -1.5226 H         1 <0>         0.0770
     34 H4         -1.9970    2.1993    0.2106 H         1 <0>         0.0781
     35 H5         -3.0429    0.6565   -1.7662 H         1 <0>         0.0949
     36 H6         -2.2379   -0.8767   -2.0780 H         1 <0>         0.1371
     37 H7         -5.2430   -1.3735   -2.0733 H         1 <0>         0.2027
     38 H8         -2.4460   -1.0965    2.5818 H         1 <0>         0.1338
     39 H9         -0.1695    1.2731    1.9825 H         1 <0>         0.0801
     40 H10        -0.3472   -0.2638    2.8682 H         1 <0>         0.0792
     41 H11         1.8990   -0.0087    1.7273 H         1 <0>         0.0751
     42 H12         0.9879   -1.4425    1.1956 H         1 <0>         0.0682
     43 H13         1.0520    1.2421   -0.2524 H         1 <0>         0.0738
     44 H14         1.9754   -0.2010   -0.7271 H         1 <0>         0.0799
     45 H15         1.0369   -1.7547   -2.9850 H         1 <0>         0.0808
     46 H16         1.1658   -0.4688   -4.2089 H         1 <0>         0.0632
     47 H17         2.0780   -0.3424   -2.6856 H         1 <0>         0.0710
     48 H18        -1.9981    1.7202   -3.2938 H         1 <0>         0.1421
     49 H19        -4.0884    1.1117   -4.4940 H         1 <0>         0.1401
     50 H20        -4.4848   -1.2776   -5.0563 H         1 <0>         0.1416
     51 H21        -2.8061   -2.9600   -4.4123 H         1 <0>         0.1622
     52 H22        -0.1908    1.9576   -1.8324 H         1 <0>         0.3821
     53 H23        -3.1770   -2.8820    2.9664 H         1 <0>         0.1331
     54 H24        -3.8191   -3.6964    5.1965 H         1 <0>         0.1378
     55 H25        -7.9046   -2.7625    4.3775 H         1 <0>         0.1378
     56 H26        -7.2771   -1.9328    2.1489 H         1 <0>         0.1369
@<TRIPOS>BOND
     1    1    2 1
     2    1   32 1
     3    1   33 1
     4    1   34 1
     5    2   10 1
     6    2   14 1
     7    2    3 1
     8    3    4 1
     9    3   35 1
    10    3   36 1
    11    4    8 1
    12    4    5 1
    13    5    6 2
    14    5   37 1
    15    6    7 1
    16    7    8 2
    17    7   25 1
    18    8    9 1
    19    9   10 2
    20    9   38 1
    21   10   11 1
    22   11   12 1
    23   11   39 1
    24   11   40 1
    25   12   13 1
    26   12   41 1
    27   12   42 1
    28   13   14 1
    29   13   43 1
    30   13   44 1
    31   14   15 1
    32   14   16 1
    33   16   17 1
    34   16   18 1
    35   16   24 1
    36   17   45 1
    37   17   46 1
    38   17   47 1
    39   18   23 ar
    40   18   19 ar
    41   19   20 ar
    42   19   48 1
    43   20   21 ar
    44   20   49 1
    45   21   22 ar
    46   21   50 1
    47   22   23 ar
    48   22   51 1
    49   24   52 1
    50   25   30 ar
    51   25   26 ar
    52   26   27 ar
    53   26   53 1
    54   27   28 ar
    55   27   54 1
    56   28   29 ar
    57   28   31 1
    58   29   30 ar
    59   29   55 1
    60   30   56 1
@<TRIPOS>MOLECULE
CHEMBL440227
   82    87     0     0     0
SMALL
USER_CHARGES

@<TRIPOS>ATOM
      1 C1         -1.5911    2.2185    1.0260 C.3       1 <0>        -0.0415
      2 C2         -1.1366    0.8203    1.0997 C.1       1 <0>        -0.1780
      3 C3         -0.7742   -0.2948    1.1585 C.1       1 <0>        -0.1984
      4 C4         -0.3198   -1.6930    1.2322 C.3       1 <0>         0.2543
      5 C5          0.9201   -1.9014    0.3292 C.3       1 <0>        -0.1448
      6 C6          0.4929   -2.9015   -0.7780 C.3       1 <0>        -0.1150
      7 C7         -1.0311   -2.7307   -0.8306 C.3       1 <0>        -0.0779
      8 H1         -1.2952   -1.8113   -1.3532 H         1 <0>         0.0769
      9 C8         -1.3918   -2.6271    0.6748 C.3       1 <0>        -0.0359
     10 C9         -2.8184   -2.1130    0.7593 C.3       1 <0>        -0.0937
     11 C10        -3.7333   -3.2187    0.2111 C.3       1 <0>        -0.0162
     12 H2         -4.7482   -2.8315    0.1201 H         1 <0>         0.0959
     13 C11        -3.2567   -3.6915   -1.1479 C.2       1 <0>        -0.0302
     14 C12        -4.1792   -3.8905   -2.0873 C.2       1 <0>        -0.1443
     15 C13        -5.6413   -3.6381   -1.7975 C.3       1 <0>        -0.0784
     16 C14        -6.2599   -2.9181   -2.9997 C.3       1 <0>        -0.1651
     17 C15        -5.9288   -3.6563   -4.2685 C.2       1 <0>         0.3904
     18 O1         -6.7517   -3.7057   -5.1606 O.2       1 <0>        -0.4788
     19 C16        -4.6857   -4.2897   -4.4418 C.2       1 <0>        -0.2599
     20 C17        -3.8130   -4.3810   -3.4157 C.2       1 <0>         0.0385
     21 C18        -2.4436   -4.9914   -3.5880 C.3       1 <0>        -0.0975
     22 C19        -1.4408   -4.0922   -2.8665 C.3       1 <0>        -0.1103
     23 C20        -1.7860   -3.9148   -1.4199 C.3       1 <0>        -0.0506
     24 H3         -1.4760   -4.8234   -0.9036 H         1 <0>         0.0985
     25 C21        -3.7314   -4.3828    1.1681 C.ar      1 <0>        -0.1207
     26 C22        -3.8025   -4.1561    2.5304 C.ar      1 <0>        -0.0646
     27 C23        -3.8010   -5.2206    3.4102 C.ar      1 <0>        -0.1938
     28 C24        -3.7280   -6.5203    2.9253 C.ar      1 <0>         0.2250
     29 C25        -3.6568   -6.7445    1.5562 C.ar      1 <0>        -0.1925
     30 C26        -3.6644   -5.6756    0.6817 C.ar      1 <0>        -0.0754
     31 N1         -3.7259   -7.5992    3.8123 N.pl3     1 <0>        -0.6223
     32 C27        -3.8006   -7.3609    5.2558 C.3       1 <0>         0.0942
     33 C28        -3.6488   -8.9692    3.2991 C.3       1 <0>         0.1712
     34 C29        -2.2041   -9.3833    3.1873 C.ar      1 <0>        -0.1379
     35 C30        -1.5057   -9.1466    2.0181 C.ar      1 <0>        -0.0998
     36 C31        -0.1806   -9.5265    1.9156 C.ar      1 <0>        -0.1173
     37 C32         0.4464  -10.1425    2.9825 C.ar      1 <0>        -0.0108
     38 C33        -0.2518  -10.3784    4.1521 C.ar      1 <0>        -0.1193
     39 C34        -1.5757   -9.9947    4.2561 C.ar      1 <0>        -0.1039
     40 C35         1.8908  -10.5575    2.8704 C.3       1 <0>        -0.1615
     41 C36         2.7753   -9.4268    3.3290 C.2       1 <0>         0.4968
     42 O2          2.2788   -8.3810    3.7114 O.co2     1 <0>        -0.6841
     43 O3          3.9874   -9.5579    3.3176 O.co2     1 <0>        -0.7035
     44 C37        -1.2795   -4.0029    1.3348 C.3       1 <0>        -0.1484
     45 O4         -0.0137   -2.0421    2.5836 O.3       1 <0>        -0.5337
     46 H4         -0.8174    2.8736    1.4265 H         1 <0>         0.0788
     47 H5         -1.7883    2.4821   -0.0131 H         1 <0>         0.0795
     48 H6         -2.5040    2.3350    1.6100 H         1 <0>         0.0799
     49 H7          1.2206   -0.9540   -0.1182 H         1 <0>         0.0693
     50 H8          1.7417   -2.3175    0.9123 H         1 <0>         0.0836
     51 H9          0.9438   -2.6339   -1.7336 H         1 <0>         0.0694
     52 H10         0.7568   -3.9215   -0.4985 H         1 <0>         0.0795
     53 H11        -3.0751   -1.8993    1.7969 H         1 <0>         0.0740
     54 H12        -2.9241   -1.2109    0.1566 H         1 <0>         0.0648
     55 H13        -6.1519   -4.5876   -1.6371 H         1 <0>         0.0803
     56 H14        -5.7358   -3.0140   -0.9088 H         1 <0>         0.0927
     57 H15        -7.3423   -2.8754   -2.8780 H         1 <0>         0.0920
     58 H16        -5.8638   -1.9043   -3.0572 H         1 <0>         0.0970
     59 H17        -4.4266   -4.7067   -5.4038 H         1 <0>         0.1326
     60 H18        -2.4263   -5.9896   -3.1506 H         1 <0>         0.0913
     61 H19        -2.1945   -5.0470   -4.6477 H         1 <0>         0.0844
     62 H20        -0.4467   -4.5317   -2.9487 H         1 <0>         0.0803
     63 H21        -1.4348   -3.1124   -3.3440 H         1 <0>         0.0653
     64 H22        -3.8589   -3.1453    2.9068 H         1 <0>         0.1168
     65 H23        -3.8562   -5.0428    4.4740 H         1 <0>         0.1184
     66 H24        -3.5995   -7.7537    1.1759 H         1 <0>         0.1206
     67 H25        -3.6134   -5.8493   -0.3830 H         1 <0>         0.1169
     68 H26        -4.8450   -7.3421    5.5674 H         1 <0>         0.0447
     69 H27        -3.2784   -8.1591    5.7834 H         1 <0>         0.0658
     70 H28        -3.3341   -6.4042    5.4908 H         1 <0>         0.0672
     71 H29        -4.1680   -9.6425    3.9812 H         1 <0>         0.0764
     72 H30        -4.1172   -9.0158    2.3159 H         1 <0>         0.0782
     73 H31        -1.9955   -8.6653    1.1845 H         1 <0>         0.1127
     74 H32         0.3649   -9.3422    1.0019 H         1 <0>         0.1122
     75 H33         0.2379  -10.8600    4.9855 H         1 <0>         0.1124
     76 H34        -2.1201  -10.1756    5.1711 H         1 <0>         0.1090
     77 H35         2.0668  -11.4330    3.4955 H         1 <0>         0.0679
     78 H36         2.1197  -10.8000    1.8327 H         1 <0>         0.0681
     79 H37        -1.7051   -3.9607    2.3374 H         1 <0>         0.0721
     80 H38        -1.8231   -4.7368    0.7398 H         1 <0>         0.0831
     81 H39        -0.2302   -4.2913    1.3974 H         1 <0>         0.0510
     82 H40         0.6749   -1.4946    2.9850 H         1 <0>         0.3761
@<TRIPOS>BOND
     1    1    2 1
     2    1   46 1
     3    1   47 1
     4    1   48 1
     5    2    3 3
     6    3    4 1
     7    4    9 1
     8    4    5 1
     9    4   45 1
    10    5    6 1
    11    5   49 1
    12    5   50 1
    13    6    7 1
    14    6   51 1
    15    6   52 1
    16    7    8 1
    17    7   23 1
    18    7    9 1
    19    9   10 1
    20    9   44 1
    21   10   11 1
    22   10   53 1
    23   10   54 1
    24   11   12 1
    25   11   13 1
    26   11   25 1
    27   13   23 1
    28   13   14 2
    29   14   20 1
    30   14   15 1
    31   15   16 1
    32   15   55 1
    33   15   56 1
    34   16   17 1
    35   16   57 1
    36   16   58 1
    37   17   18 2
    38   17   19 1
    39   19   20 2
    40   19   59 1
    41   20   21 1
    42   21   22 1
    43   21   60 1
    44   21   61 1
    45   22   23 1
    46   22   62 1
    47   22   63 1
    48   23   24 1
    49   25   30 ar
    50   25   26 ar
    51   26   27 ar
    52   26   64 1
    53   27   28 ar
    54   27   65 1
    55   28   29 ar
    56   28   31 1
    57   29   30 ar
    58   29   66 1
    59   30   67 1
    60   31   32 1
    61   31   33 1
    62   32   68 1
    63   32   69 1
    64   32   70 1
    65   33   34 1
    66   33   71 1
    67   33   72 1
    68   34   39 ar
    69   34   35 ar
    70   35   36 ar
    71   35   73 1
    72   36   37 ar
    73   36   74 1
    74   37   38 ar
    75   37   40 1
    76   38   39 ar
    77   38   75 1
    78   39   76 1
    79   40   41 1
    80   40   77 1
    81   40   78 1
    82   41   42 2
    83   41   43 1
    84   44   79 1
    85   44   80 1
    86   44   81 1
    87   45   82 1
@<TRIPOS>MOLECULE
CHEMBL394344
   63    66     0     0     0
SMALL
USER_CHARGES

@<TRIPOS>ATOM
      1 C1          0.5603   -0.7069   -1.2371 C.3       1 <0>        -0.1683
      2 C2          0.0021   -0.0041    0.0020 C.3       1 <0>         0.1315
      3 C3          0.6388   -0.5847    1.2384 C.2       1 <0>        -0.0710
      4 C4         -0.0740   -1.3418    2.0626 C.2       1 <0>        -0.1430
      5 C5          0.5359   -1.9198    3.3117 C.3       1 <0>         0.2132
      6 N1          1.9774   -2.1233    3.1182 N.pl3     1 <0>        -0.7434
      7 C6          2.7111   -1.1131    2.4938 C.ar      1 <0>         0.2198
      8 C7          2.0607   -0.3189    1.5355 C.ar      1 <0>        -0.1080
      9 C8          2.7570    0.6964    0.8934 C.ar      1 <0>        -0.0599
     10 C9          4.0986    0.9098    1.2025 C.ar      1 <0>        -0.0835
     11 C10         4.7366    0.1084    2.1495 C.ar      1 <0>        -0.0466
     12 C11         4.0425   -0.8903    2.7961 C.ar      1 <0>        -0.1768
     13 C12         4.8510    1.9920    0.5222 C.ar      1 <0>        -0.0690
     14 C13         4.8141    2.1041   -0.8658 C.ar      1 <0>        -0.0737
     15 C14         5.5160    3.1128   -1.4941 C.ar      1 <0>        -0.1550
     16 C15         6.2568    4.0142   -0.7502 C.ar      1 <0>        -0.0816
     17 C16         6.3005    3.9117    0.6274 C.ar      1 <0>        -0.2078
     18 C17         5.5957    2.9077    1.2715 C.ar      1 <0>         0.1357
     19 O1          5.6330    2.8097    2.6261 O.3       1 <0>        -0.3076
     20 C18         6.4146    3.7802    3.3255 C.3       1 <0>         0.0251
     21 C19        -0.1286   -3.2613    3.6276 C.3       1 <0>        -0.1517
     22 C20         0.3112   -0.9567    4.4792 C.3       1 <0>        -0.1574
     23 O2         -1.4130   -0.1944    0.0607 O.3       1 <0>        -0.3738
     24 C21        -2.1640    0.8178   -0.6125 C.3       1 <0>         0.0924
     25 C22        -3.6357    0.5184   -0.4873 C.2       1 <0>        -0.1403
     26 C23        -4.4851    1.4874   -0.1761 C.2       1 <0>        -0.1071
     27 C24        -5.9286    1.1937   -0.0533 C.ar      1 <0>        -0.0578
     28 C25        -6.3995   -0.1037   -0.2586 C.ar      1 <0>        -0.1134
     29 C26        -7.7481   -0.3712   -0.1425 C.ar      1 <0>        -0.1184
     30 C27        -8.6327    0.6435    0.1763 C.ar      1 <0>        -0.1193
     31 C28        -8.1722    1.9320    0.3806 C.ar      1 <0>        -0.1194
     32 C29        -6.8253    2.2114    0.2741 C.ar      1 <0>        -0.1085
     33 H1          0.3750   -1.7783   -1.1615 H         1 <0>         0.0651
     34 H2          0.0701   -0.3154   -2.1285 H         1 <0>         0.0598
     35 H3          1.6333   -0.5275   -1.3041 H         1 <0>         0.0696
     36 H4          0.2233    1.0618   -0.0542 H         1 <0>         0.0696
     37 H5         -1.1094   -1.5466    1.8336 H         1 <0>         0.1330
     38 H6          2.4088   -2.9391    3.4170 H         1 <0>         0.4015
     39 H7          2.2625    1.3156    0.1596 H         1 <0>         0.1211
     40 H8          5.7774    0.2778    2.3830 H         1 <0>         0.1221
     41 H9          4.5415   -1.5069    3.5290 H         1 <0>         0.1232
     42 H10         4.2372    1.4021   -1.4497 H         1 <0>         0.1290
     43 H11         5.4871    3.1987   -2.5703 H         1 <0>         0.1250
     44 H12         6.8036    4.8011   -1.2483 H         1 <0>         0.1244
     45 H13         6.8808    4.6179    1.2027 H         1 <0>         0.1284
     46 H14         6.0291    4.7777    3.1145 H         1 <0>         0.0550
     47 H15         6.3586    3.5882    4.3970 H         1 <0>         0.1004
     48 H16         7.4524    3.7151    2.9985 H         1 <0>         0.0553
     49 H17         0.0260   -3.9481    2.7955 H         1 <0>         0.0630
     50 H18         0.3120   -3.6810    4.5319 H         1 <0>         0.0626
     51 H19        -1.1972   -3.1104    3.7804 H         1 <0>         0.0742
     52 H20        -0.7586   -0.8117    4.6298 H         1 <0>         0.0653
     53 H21         0.7523   -1.3740    5.3844 H         1 <0>         0.0594
     54 H22         0.7797    0.0015    4.2550 H         1 <0>         0.0570
     55 H23        -1.9511    1.7877   -0.1630 H         1 <0>         0.0566
     56 H24        -1.8855    0.8367   -1.6662 H         1 <0>         0.0627
     57 H25        -3.9983   -0.4857   -0.6510 H         1 <0>         0.1221
     58 H26        -4.1225    2.4914   -0.0124 H         1 <0>         0.1202
     59 H27        -5.7100   -0.8965   -0.5082 H         1 <0>         0.1251
     60 H28        -8.1139   -1.3749   -0.3011 H         1 <0>         0.1237
     61 H29        -9.6874    0.4290    0.2657 H         1 <0>         0.1225
     62 H30        -8.8680    2.7199    0.6285 H         1 <0>         0.1239
     63 H31        -6.4664    3.2166    0.4389 H         1 <0>         0.1240
@<TRIPOS>BOND
     1    1    2 1
     2    1   33 1
     3    1   34 1
     4    1   35 1
     5    2    3 1
     6    2   23 1
     7    2   36 1
     8    3    8 1
     9    3    4 2
    10    4    5 1
    11    4   37 1
    12    5    6 1
    13    5   21 1
    14    5   22 1
    15    6    7 1
    16    6   38 1
    17    7   12 ar
    18    7    8 ar
    19    8    9 ar
    20    9   10 ar
    21    9   39 1
    22   10   11 ar
    23   10   13 1
    24   11   12 ar
    25   11   40 1
    26   12   41 1
    27   13   18 ar
    28   13   14 ar
    29   14   15 ar
    30   14   42 1
    31   15   16 ar
    32   15   43 1
    33   16   17 ar
    34   16   44 1
    35   17   18 ar
    36   17   45 1
    37   18   19 1
    38   19   20 1
    39   20   46 1
    40   20   47 1
    41   20   48 1
    42   21   49 1
    43   21   50 1
    44   21   51 1
    45   22   52 1
    46   22   53 1
    47   22   54 1
    48   23   24 1
    49   24   25 1
    50   24   55 1
    51   24   56 1
    52   25   26 2
    53   25   57 1
    54   26   27 1
    55   26   58 1
    56   27   32 ar
    57   27   28 ar
    58   28   29 ar
    59   28   59 1
    60   29   30 ar
    61   29   60 1
    62   30   31 ar
    63   30   61 1
    64   31   32 ar
    65   31   62 1
    66   32   63 1
@<TRIPOS>MOLECULE
CHEMBL394344__1
   63    66     0     0     0
SMALL
USER_CHARGES

@<TRIPOS>ATOM
      1 C1         -0.0187    1.5258    0.0104 C.3       1 <0>        -0.1728
      2 C2          0.0021   -0.0041    0.0020 C.3       1 <0>         0.1299
      3 C3          0.7074   -0.4901   -1.2379 C.2       1 <0>        -0.0479
      4 C4          0.0398   -1.1688   -2.1621 C.2       1 <0>        -0.1660
      5 C5          0.7264   -1.6779   -3.4013 C.3       1 <0>         0.2184
      6 N1          1.8583   -0.8062   -3.7416 N.pl3     1 <0>        -0.7449
      7 C6          2.6987   -0.3795   -2.7118 C.ar      1 <0>         0.2170
      8 C7          2.1438   -0.2081   -1.4332 C.ar      1 <0>        -0.1132
      9 C8          2.9480    0.2145   -0.3832 C.ar      1 <0>        -0.0415
     10 C9          4.2977    0.4721   -0.6135 C.ar      1 <0>        -0.0913
     11 C10         4.8357    0.3072   -1.8900 C.ar      1 <0>        -0.0449
     12 C11         4.0409   -0.1246   -2.9289 C.ar      1 <0>        -0.1832
     13 C12         5.1651    0.9236    0.5017 C.ar      1 <0>        -0.0646
     14 C13         4.7651    1.9815    1.3150 C.ar      1 <0>        -0.0710
     15 C14         5.5758    2.3980    2.3515 C.ar      1 <0>        -0.1541
     16 C15         6.7854    1.7683    2.5862 C.ar      1 <0>        -0.0826
     17 C16         7.1920    0.7181    1.7851 C.ar      1 <0>        -0.2082
     18 C17         6.3850    0.2857    0.7450 C.ar      1 <0>         0.1346
     19 O1          6.7808   -0.7506   -0.0394 O.3       1 <0>        -0.3076
     20 C18         8.0391   -1.3537    0.2686 C.3       1 <0>         0.0255
     21 C19         1.2365   -3.0987   -3.1520 C.3       1 <0>        -0.1579
     22 C20        -0.2691   -1.6945   -4.5631 C.3       1 <0>        -0.1527
     23 O2          0.6932   -0.4774    1.1597 O.3       1 <0>        -0.3671
     24 C21        -0.1498   -0.6889    2.2940 C.3       1 <0>         0.0899
     25 C22         0.6792   -1.1848    3.4506 C.2       1 <0>        -0.1387
     26 C23         0.5051   -0.6700    4.6598 C.2       1 <0>        -0.1078
     27 C24         1.3183   -1.1565    5.7942 C.ar      1 <0>        -0.0567
     28 C25         2.2740   -2.1534    5.5946 C.ar      1 <0>        -0.1122
     29 C26         3.0298   -2.6031    6.6577 C.ar      1 <0>        -0.1181
     30 C27         2.8413   -2.0681    7.9196 C.ar      1 <0>        -0.1195
     31 C28         1.8951   -1.0798    8.1242 C.ar      1 <0>        -0.1197
     32 C29         1.1375   -0.6167    7.0682 C.ar      1 <0>        -0.1087
     33 H1          1.0039    1.9031    0.0027 H         1 <0>         0.0696
     34 H2         -0.5459    1.8868   -0.8726 H         1 <0>         0.0665
     35 H3         -0.5289    1.8773    0.9072 H         1 <0>         0.0602
     36 H4         -1.0205   -0.3814    0.0098 H         1 <0>         0.0683
     37 H5         -1.0141   -1.3595   -2.0228 H         1 <0>         0.1211
     38 H6          2.0181   -0.5342   -4.6588 H         1 <0>         0.4011
     39 H7          2.5304    0.3428    0.6045 H         1 <0>         0.1410
     40 H8          5.8823    0.5106   -2.0623 H         1 <0>         0.1203
     41 H9          4.4632   -0.2513   -3.9148 H         1 <0>         0.1211
     42 H10         3.8218    2.4755    1.1345 H         1 <0>         0.1278
     43 H11         5.2651    3.2185    2.9813 H         1 <0>         0.1236
     44 H12         7.4149    2.0993    3.3990 H         1 <0>         0.1231
     45 H13         8.1373    0.2308    1.9730 H         1 <0>         0.1273
     46 H14         8.0140   -1.7482    1.2844 H         1 <0>         0.0544
     47 H15         8.2339   -2.1658   -0.4318 H         1 <0>         0.0995
     48 H16         8.8292   -0.6072    0.1882 H         1 <0>         0.0547
     49 H17         0.3962   -3.7488   -2.9082 H         1 <0>         0.0641
     50 H18         1.7339   -3.4687   -4.0485 H         1 <0>         0.0598
     51 H19         1.9426   -3.0907   -2.3217 H         1 <0>         0.0588
     52 H20        -0.6377   -0.6841   -4.7401 H         1 <0>         0.0629
     53 H21         0.2267   -2.0629   -5.4612 H         1 <0>         0.0636
     54 H22        -1.1054   -2.3482   -4.3156 H         1 <0>         0.0733
     55 H23        -0.6318    0.2495    2.5684 H         1 <0>         0.0563
     56 H24        -0.9106   -1.4298    2.0482 H         1 <0>         0.0617
     57 H25         1.4152   -1.9596    3.2944 H         1 <0>         0.1215
     58 H26        -0.2308    0.1048    4.8160 H         1 <0>         0.1199
     59 H27         2.4215   -2.5723    4.6102 H         1 <0>         0.1245
     60 H28         3.7698   -3.3746    6.5046 H         1 <0>         0.1229
     61 H29         3.4352   -2.4238    8.7485 H         1 <0>         0.1220
     62 H30         1.7523   -0.6668    9.1118 H         1 <0>         0.1234
     63 H31         0.4028    0.1585    7.2282 H         1 <0>         0.1237
@<TRIPOS>BOND
     1    1    2 1
     2    1   33 1
     3    1   34 1
     4    1   35 1
     5    2    3 1
     6    2   23 1
     7    2   36 1
     8    3    8 1
     9    3    4 2
    10    4    5 1
    11    4   37 1
    12    5    6 1
    13    5   21 1
    14    5   22 1
    15    6    7 1
    16    6   38 1
    17    7   12 ar
    18    7    8 ar
    19    8    9 ar
    20    9   10 ar
    21    9   39 1
    22   10   11 ar
    23   10   13 1
    24   11   12 ar
    25   11   40 1
    26   12   41 1
    27   13   18 ar
    28   13   14 ar
    29   14   15 ar
    30   14   42 1
    31   15   16 ar
    32   15   43 1
    33   16   17 ar
    34   16   44 1
    35   17   18 ar
    36   17   45 1
    37   18   19 1
    38   19   20 1
    39   20   46 1
    40   20   47 1
    41   20   48 1
    42   21   49 1
    43   21   50 1
    44   21   51 1
    45   22   52 1
    46   22   53 1
    47   22   54 1
    48   23   24 1
    49   24   25 1
    50   24   55 1
    51   24   56 1
    52   25   26 2
    53   25   57 1
    54   26   27 1
    55   26   58 1
    56   27   32 ar
    57   27   28 ar
    58   28   29 ar
    59   28   59 1
    60   29   30 ar
    61   29   60 1
    62   30   31 ar
    63   30   61 1
    64   31   32 ar
    65   31   62 1
    66   32   63 1
@<TRIPOS>MOLECULE
CHEMBL437166
   83    88     0     0     0
SMALL
USER_CHARGES

@<TRIPOS>ATOM
      1 C1         -1.5222    1.8941   -0.8253 C.3       1 <0>        -0.0430
      2 C2         -1.1015    0.5130   -0.5386 C.1       1 <0>        -0.1731
      3 C3         -0.7660   -0.5886   -0.3099 C.1       1 <0>        -0.2027
      4 C4         -0.3454   -1.9697   -0.0231 C.3       1 <0>         0.2555
      5 C5          0.9035   -2.3343   -0.8618 C.3       1 <0>        -0.1445
      6 C6          0.4709   -3.4774   -1.8183 C.3       1 <0>        -0.1151
      7 C7         -1.0477   -3.2849   -1.9245 C.3       1 <0>        -0.0783
      8 H1         -1.2821   -2.4471   -2.5813 H         1 <0>         0.0781
      9 C8         -1.4298   -2.9535   -0.4578 C.3       1 <0>        -0.0366
     10 C9         -2.8453   -2.4032   -0.4769 C.3       1 <0>        -0.0938
     11 C10        -3.7767   -3.5584   -0.8743 C.3       1 <0>        -0.0173
     12 H2         -4.7808   -3.1681   -1.0406 H         1 <0>         0.0978
     13 C11        -3.2896   -4.2358   -2.1399 C.2       1 <0>        -0.0358
     14 C12        -4.2015   -4.5518   -3.0574 C.2       1 <0>        -0.1399
     15 C13        -5.6618   -4.2294   -2.8357 C.3       1 <0>        -0.0790
     16 C14        -6.2444   -3.6816   -4.1422 C.3       1 <0>        -0.1652
     17 C15        -5.9104   -4.6051   -5.2823 C.2       1 <0>         0.3895
     18 O1         -6.7199   -4.7682   -6.1732 O.2       1 <0>        -0.4764
     19 C16        -4.6796   -5.2825   -5.3370 C.2       1 <0>        -0.2562
     20 C17        -3.8257   -5.2398   -4.2922 C.2       1 <0>         0.0350
     21 C18        -2.4683   -5.8970   -4.3468 C.3       1 <0>        -0.0974
     22 C19        -1.4565   -4.9224   -3.7460 C.3       1 <0>        -0.1107
     23 C20        -1.8204   -4.5270   -2.3480 C.3       1 <0>        -0.0491
     24 H3         -1.5398   -5.3558   -1.6981 H         1 <0>         0.0963
     25 C21        -3.8171   -4.5689    0.2430 C.ar      1 <0>        -0.1143
     26 C22        -3.9016   -4.1427    1.5558 C.ar      1 <0>        -0.0662
     27 C23        -3.9388   -5.0660    2.5822 C.ar      1 <0>        -0.1864
     28 C24        -3.8912   -6.4242    2.2945 C.ar      1 <0>         0.2228
     29 C25        -3.8062   -6.8488    0.9747 C.ar      1 <0>        -0.1886
     30 C26        -3.7752   -5.9203   -0.0472 C.ar      1 <0>        -0.0748
     31 N1         -3.9281   -7.3607    3.3301 N.pl3     1 <0>        -0.6112
     32 C27        -4.0172   -6.9110    4.7216 C.3       1 <0>         0.0975
     33 C28        -3.8777   -8.7926    3.0249 C.3       1 <0>         0.1079
     34 C29        -2.4423   -9.2509    3.0005 C.2       1 <0>         0.4791
     35 O2         -1.5493   -8.4593    3.2167 O.2       1 <0>        -0.4994
     36 N2         -2.1510  -10.5404    2.7383 N.am      1 <0>        -0.6695
     37 C30        -0.8314  -10.9831    2.8010 C.ar      1 <0>         0.1253
     38 C31         0.0407  -10.4358    3.7377 C.ar      1 <0>        -0.1325
     39 C32         1.3401  -10.8688    3.8026 C.ar      1 <0>        -0.0692
     40 C33         1.7889  -11.8625    2.9258 C.ar      1 <0>        -0.1422
     41 C34         0.9091  -12.4106    1.9859 C.ar      1 <0>        -0.0695
     42 C35        -0.3901  -11.9756    1.9306 C.ar      1 <0>        -0.1601
     43 C36         3.1835  -12.3300    2.9917 C.2       1 <0>         0.5195
     44 O3          3.9515  -11.8494    3.8138 O.co2     1 <0>        -0.6878
     45 O4          3.5742  -13.1990    2.2243 O.co2     1 <0>        -0.6893
     46 C37        -1.3599   -4.2192    0.3990 C.3       1 <0>        -0.1478
     47 O5         -0.0690   -2.1225    1.3706 O.3       1 <0>        -0.5357
     48 H4         -0.7400    2.5849   -0.5106 H         1 <0>         0.0798
     49 H5         -1.6967    2.0060   -1.8954 H         1 <0>         0.0804
     50 H6         -2.4414    2.1141   -0.2823 H         1 <0>         0.0805
     51 H7          1.2329   -1.4694   -1.4376 H         1 <0>         0.0704
     52 H8          1.7059   -2.6769   -0.2084 H         1 <0>         0.0821
     53 H9          0.9430   -3.3627   -2.7940 H         1 <0>         0.0705
     54 H10         0.7066   -4.4504   -1.3871 H         1 <0>         0.0779
     55 H11        -3.1133   -2.0340    0.5130 H         1 <0>         0.0744
     56 H12        -2.9205   -1.5977   -1.2074 H         1 <0>         0.0665
     57 H13        -6.1967   -5.1343   -2.5475 H         1 <0>         0.0808
     58 H14        -5.7559   -3.4796   -2.0502 H         1 <0>         0.0927
     59 H15        -7.3272   -3.5991   -4.0488 H         1 <0>         0.0927
     60 H16        -5.8240   -2.6956   -4.3403 H         1 <0>         0.0975
     61 H17        -4.4151   -5.8418   -6.2223 H         1 <0>         0.1335
     62 H18        -2.4811   -6.8202   -3.7674 H         1 <0>         0.0909
     63 H19        -2.2037   -6.1130   -5.3819 H         1 <0>         0.0853
     64 H20        -0.4717   -5.3895   -3.7438 H         1 <0>         0.0803
     65 H21        -1.4202   -4.0237   -4.3619 H         1 <0>         0.0660
     66 H22        -3.9383   -3.0866    1.7788 H         1 <0>         0.1195
     67 H23        -4.0045   -4.7325    3.6073 H         1 <0>         0.1207
     68 H24        -3.7686   -7.9040    0.7476 H         1 <0>         0.1145
     69 H25        -3.7136   -6.2499   -1.0738 H         1 <0>         0.1189
     70 H26        -5.0650   -6.8231    5.0086 H         1 <0>         0.0494
     71 H27        -3.5223   -7.6344    5.3696 H         1 <0>         0.0653
     72 H28        -3.5305   -5.9408    4.8217 H         1 <0>         0.0709
     73 H29        -4.4230   -9.3464    3.7892 H         1 <0>         0.1063
     74 H30        -4.3333   -8.9728    2.0512 H         1 <0>         0.1055
     75 H31        -2.8600  -11.1603    2.5060 H         1 <0>         0.4046
     76 H32        -0.3066   -9.6687    4.4141 H         1 <0>         0.1231
     77 H33         2.0163  -10.4431    4.5292 H         1 <0>         0.1282
     78 H34         1.2519  -13.1776    1.3072 H         1 <0>         0.1296
     79 H35        -1.0709  -12.4010    1.2082 H         1 <0>         0.1158
     80 H36        -1.7779   -4.0143    1.3846 H         1 <0>         0.0714
     81 H37        -1.9315   -5.0141   -0.0800 H         1 <0>         0.0839
     82 H38        -0.3205   -4.5307    0.5028 H         1 <0>         0.0484
     83 H39         0.6257   -1.5362    1.7003 H         1 <0>         0.3761
@<TRIPOS>BOND
     1    1    2 1
     2    1   48 1
     3    1   49 1
     4    1   50 1
     5    2    3 3
     6    3    4 1
     7    4    9 1
     8    4    5 1
     9    4   47 1
    10    5    6 1
    11    5   51 1
    12    5   52 1
    13    6    7 1
    14    6   53 1
    15    6   54 1
    16    7    8 1
    17    7   23 1
    18    7    9 1
    19    9   10 1
    20    9   46 1
    21   10   11 1
    22   10   55 1
    23   10   56 1
    24   11   12 1
    25   11   13 1
    26   11   25 1
    27   13   23 1
    28   13   14 2
    29   14   20 1
    30   14   15 1
    31   15   16 1
    32   15   57 1
    33   15   58 1
    34   16   17 1
    35   16   59 1
    36   16   60 1
    37   17   18 2
    38   17   19 1
    39   19   20 2
    40   19   61 1
    41   20   21 1
    42   21   22 1
    43   21   62 1
    44   21   63 1
    45   22   23 1
    46   22   64 1
    47   22   65 1
    48   23   24 1
    49   25   30 ar
    50   25   26 ar
    51   26   27 ar
    52   26   66 1
    53   27   28 ar
    54   27   67 1
    55   28   29 ar
    56   28   31 1
    57   29   30 ar
    58   29   68 1
    59   30   69 1
    60   31   32 1
    61   31   33 1
    62   32   70 1
    63   32   71 1
    64   32   72 1
    65   33   34 1
    66   33   73 1
    67   33   74 1
    68   34   35 2
    69   34   36 am
    70   36   37 1
    71   36   75 1
    72   37   42 ar
    73   37   38 ar
    74   38   39 ar
    75   38   76 1
    76   39   40 ar
    77   39   77 1
    78   40   41 ar
    79   40   43 1
    80   41   42 ar
    81   41   78 1
    82   42   79 1
    83   43   44 2
    84   43   45 1
    85   46   80 1
    86   46   81 1
    87   46   82 1
    88   47   83 1
@<TRIPOS>MOLECULE
CHEMBL503848
   77    81     0     0     0
SMALL
USER_CHARGES

@<TRIPOS>ATOM
      1 C1         -0.5631    1.4378    0.8785 C.3       1 <0>        -0.1594
      2 C2         -0.5665   -0.0739    0.6429 C.3       1 <0>        -0.0892
      3 H1         -1.5903   -0.4479    0.6298 H         1 <0>         0.0924
      4 C3          0.1394   -0.4057   -0.7002 C.3       1 <0>        -0.1123
      5 C4          0.8771   -1.7120   -0.3862 C.3       1 <0>        -0.0832
      6 H2          0.1763   -2.5465   -0.3606 H         1 <0>         0.0875
      7 C5          2.0535   -2.0392   -1.2877 C.3       1 <0>        -0.0993
      8 H3          2.7800   -1.2273   -1.2537 H         1 <0>         0.1154
      9 C6          1.5672   -2.2369   -2.7249 C.3       1 <0>        -0.1155
     10 C7          2.7621   -2.5278   -3.6384 C.3       1 <0>        -0.0950
     11 C8          3.5110   -3.7192   -3.0711 C.2       1 <0>        -0.0292
     12 C9          3.7868   -4.7430   -3.8669 C.2       1 <0>        -0.2208
     13 C10         4.4934   -5.9244   -3.3479 C.2       1 <0>         0.4077
     14 O1          4.7822   -6.8497   -4.0835 O.2       1 <0>        -0.4563
     15 C11         4.8429   -5.9619   -1.9178 C.2       1 <0>        -0.2091
     16 C12         4.5636   -4.9254   -1.1433 C.2       1 <0>        -0.0688
     17 C13         3.9080   -3.6770   -1.6251 C.3       1 <0>        -0.0314
     18 C14         2.6947   -3.3317   -0.7577 C.3       1 <0>         0.1611
     19 C15         3.1163   -3.1946    0.7021 C.3       1 <0>         0.0906
     20 H4          3.4771   -4.1588    1.0600 H         1 <0>         0.0735
     21 C16         1.9487   -2.7353    1.5897 C.3       1 <0>        -0.1325
     22 C17         1.4318   -1.4262    1.0351 C.3       1 <0>        -0.0406
     23 C18         0.2458   -0.7867    1.7526 C.3       1 <0>         0.1199
     24 C19         0.7286    0.2139    2.7708 C.2       1 <0>         0.3531
     25 O2          1.3805    1.1673    2.4184 O.2       1 <0>        -0.3991
     26 C20         0.3977    0.0247    4.2288 C.3       1 <0>         0.0210
     27 O3          0.9142    1.1245    4.9810 O.3       1 <0>        -0.5498
     28 O4         -0.5524   -1.7904    2.3832 O.3       1 <0>        -0.3464
     29 C21        -1.7469   -1.4048    2.8702 C.2       1 <0>         0.6401
     30 O5         -2.1104   -0.2521    2.7456 O.2       1 <0>        -0.5561
     31 N1         -2.5396   -2.2974    3.4958 N.am      1 <0>        -0.7041
     32 C22        -3.8393   -1.8779    4.0256 C.3       1 <0>         0.1613
     33 C23        -3.6528   -1.2844    5.4234 C.3       1 <0>        -0.1313
     34 C24        -5.0103   -0.8463    5.9768 C.3       1 <0>        -0.1175
     35 C25        -5.9431   -2.0564    6.0568 C.3       1 <0>        -0.1238
     36 C26        -6.1296   -2.6498    4.6589 C.3       1 <0>        -0.1161
     37 C27        -4.7722   -3.0880    4.1056 C.3       1 <0>        -0.1272
     38 C28         2.5902   -0.4304    0.9494 C.3       1 <0>        -0.1676
     39 O6          4.1740   -2.2381    0.7939 O.3       1 <0>        -0.5397
     40 F1          1.7706   -4.3775   -0.8550 F         1 <0>        -0.1924
     41 C29         4.9015   -2.5273   -1.4464 C.3       1 <0>        -0.1364
     42 H5          0.4638    1.8034    0.8773 H         1 <0>         0.0812
     43 H6         -1.1250    1.9305    0.0849 H         1 <0>         0.0575
     44 H7         -1.0256    1.6566    1.8409 H         1 <0>         0.0644
     45 H8         -0.5926   -0.5572   -1.4935 H         1 <0>         0.0762
     46 H9          0.8448    0.3803   -0.9696 H         1 <0>         0.0803
     47 H10         0.8712   -3.0750   -2.7602 H         1 <0>         0.0742
     48 H11         1.0626   -1.3325   -3.0647 H         1 <0>         0.0824
     49 H12         2.4092   -2.7595   -4.6433 H         1 <0>         0.0847
     50 H13         3.4210   -1.6601   -3.6701 H         1 <0>         0.0887
     51 H14         3.4899   -4.7097   -4.9048 H         1 <0>         0.1389
     52 H15         5.3260   -6.8336   -1.5016 H         1 <0>         0.1406
     53 H16         4.8268   -4.9885   -0.0978 H         1 <0>         0.1273
     54 H17         1.1498   -3.4764    1.5652 H         1 <0>         0.0884
     55 H18         2.2941   -2.5940    2.6138 H         1 <0>         0.0766
     56 H19        -0.6841   -0.0239    4.3526 H         1 <0>         0.0846
     57 H20         0.8463   -0.9023    4.5859 H         1 <0>         0.0751
     58 H21         0.7378    1.0692    5.9302 H         1 <0>         0.3844
     59 H22        -2.2494   -3.2177    3.5952 H         1 <0>         0.4068
     60 H23        -4.2748   -1.1264    3.3670 H         1 <0>         0.0940
     61 H24        -3.2174   -2.0359    6.0821 H         1 <0>         0.0660
     62 H25        -2.9883   -0.4223    5.3664 H         1 <0>         0.0666
     63 H26        -4.8774   -0.4235    6.9726 H         1 <0>         0.0673
     64 H27        -5.4457   -0.0948    5.3181 H         1 <0>         0.0661
     65 H28        -5.5077   -2.8078    6.7154 H         1 <0>         0.0638
     66 H29        -6.9102   -1.7442    6.4510 H         1 <0>         0.0663
     67 H30        -6.7942   -3.5119    4.7159 H         1 <0>         0.0705
     68 H31        -6.5650   -1.8983    4.0003 H         1 <0>         0.0668
     69 H32        -4.9051   -3.5108    3.1098 H         1 <0>         0.0719
     70 H33        -4.3368   -3.8395    4.7642 H         1 <0>         0.0711
     71 H34         2.2039    0.5547    0.6877 H         1 <0>         0.0728
     72 H35         3.0963   -0.3779    1.9133 H         1 <0>         0.0534
     73 H36         3.2957   -0.7586    0.1860 H         1 <0>         0.1092
     74 H37         4.4978   -2.0949    1.6938 H         1 <0>         0.3783
     75 H38         4.3603   -1.5819   -1.4084 H         1 <0>         0.0783
     76 H39         5.4552   -2.6665   -0.5179 H         1 <0>         0.0976
     77 H40         5.5969   -2.5143   -2.2857 H         1 <0>         0.0544
@<TRIPOS>BOND
     1    1    2 1
     2    1   42 1
     3    1   43 1
     4    1   44 1
     5    2    3 1
     6    2   23 1
     7    2    4 1
     8    4    5 1
     9    4   45 1
    10    4   46 1
    11    5    6 1
    12    5   22 1
    13    5    7 1
    14    7    8 1
    15    7   18 1
    16    7    9 1
    17    9   10 1
    18    9   47 1
    19    9   48 1
    20   10   11 1
    21   10   49 1
    22   10   50 1
    23   11   17 1
    24   11   12 2
    25   12   13 1
    26   12   51 1
    27   13   14 2
    28   13   15 1
    29   15   16 2
    30   15   52 1
    31   16   17 1
    32   16   53 1
    33   17   18 1
    34   17   41 1
    35   18   19 1
    36   18   40 1
    37   19   20 1
    38   19   21 1
    39   19   39 1
    40   21   22 1
    41   21   54 1
    42   21   55 1
    43   22   23 1
    44   22   38 1
    45   23   24 1
    46   23   28 1
    47   24   25 2
    48   24   26 1
    49   26   27 1
    50   26   56 1
    51   26   57 1
    52   27   58 1
    53   28   29 1
    54   29   30 2
    55   29   31 am
    56   31   32 1
    57   31   59 1
    58   32   37 1
    59   32   33 1
    60   32   60 1
    61   33   34 1
    62   33   61 1
    63   33   62 1
    64   34   35 1
    65   34   63 1
    66   34   64 1
    67   35   36 1
    68   35   65 1
    69   35   66 1
    70   36   37 1
    71   36   67 1
    72   36   68 1
    73   37   69 1
    74   37   70 1
    75   38   71 1
    76   38   72 1
    77   38   73 1
    78   39   74 1
    79   41   75 1
    80   41   76 1
    81   41   77 1
@<TRIPOS>MOLECULE
CHEMBL293388
   42    45     0     0     0
SMALL
USER_CHARGES

@<TRIPOS>ATOM
      1 C1         -0.0173    1.4248    0.0099 C.3       1 <0>         0.0220
      2 O1          0.0021   -0.0041    0.0020 O.3       1 <0>        -0.2995
      3 C2         -1.1999   -0.6373    0.0101 C.ar      1 <0>         0.1453
      4 C3         -2.3766    0.0983    0.0195 C.ar      1 <0>        -0.2262
      5 C4         -3.5984   -0.5485    0.0297 C.ar      1 <0>        -0.0750
      6 C5         -3.6629   -1.9302    0.0428 C.ar      1 <0>        -0.1710
      7 C6         -2.4989   -2.6793    0.0401 C.ar      1 <0>         0.1455
      8 C7         -1.2590   -2.0276    0.0032 C.ar      1 <0>        -0.0923
      9 C8         -0.0335   -2.8588   -0.0287 C.ar      1 <0>        -0.1506
     10 C9          1.2228   -2.3154    0.2107 C.ar      1 <0>        -0.0337
     11 C10         2.3353   -3.1323    0.1895 C.ar      1 <0>        -0.2564
     12 C11         2.1965   -4.4914   -0.0681 C.ar      1 <0>         0.2950
     13 C12         0.9400   -5.0339   -0.3152 C.ar      1 <0>        -0.1572
     14 C13        -0.1714   -4.2215   -0.3057 C.ar      1 <0>        -0.0814
     15 C14        -1.5376   -4.7727   -0.6192 C.3       1 <0>         0.2313
     16 O2         -2.5439   -4.0345    0.0849 O.3       1 <0>        -0.3073
     17 C15        -1.6008   -6.2178   -0.1962 C.2       1 <0>        -0.1212
     18 C16        -1.3821   -7.3335   -0.9341 C.2       1 <0>        -0.1507
     19 C17        -1.4966   -8.5708   -0.3285 C.2       1 <0>        -0.1515
     20 C18        -1.8243   -8.6318    0.9854 C.2       1 <0>        -0.1909
     21 S1         -1.9755   -6.9040    1.4088 S.3       1 <0>         0.0761
     22 N1          3.3240   -5.3156   -0.0791 N.2       1 <0>        -1.0934
     23 S2          4.8219   -4.6734    0.2142 S.o2      1 <0>         2.5254
     24 O3          5.0474   -3.7730   -0.8617 O.2       1 <0>        -1.0287
     25 O4          4.7581   -4.2010    1.5529 O.2       1 <0>        -1.0280
     26 C19         5.9622   -6.0797    0.1016 C.3       1 <0>        -0.6374
     27 H1          1.0053    1.8021    0.0021 H         1 <0>         0.0974
     28 H2         -0.5445    1.7859   -0.8732 H         1 <0>         0.0526
     29 H3         -0.5275    1.7763    0.9067 H         1 <0>         0.0527
     30 H4         -2.3378    1.1776    0.0186 H         1 <0>         0.1256
     31 H5         -4.5104    0.0300    0.0279 H         1 <0>         0.1254
     32 H6         -4.6227   -2.4252    0.0554 H         1 <0>         0.1279
     33 H7          1.3283   -1.2595    0.4119 H         1 <0>         0.1297
     34 H8          3.3144   -2.7153    0.3734 H         1 <0>         0.1052
     35 H9          0.8363   -6.0903   -0.5143 H         1 <0>         0.1189
     36 H10        -1.7152   -4.7066   -1.6926 H         1 <0>         0.0963
     37 H11        -1.1226   -7.2570   -1.9796 H         1 <0>         0.1346
     38 H12        -1.3279   -9.4754   -0.8938 H         1 <0>         0.1313
     39 H13        -1.9557   -9.5001    1.6140 H         1 <0>         0.1820
     40 H14         5.8998   -6.5192   -0.8939 H         1 <0>         0.1152
     41 H15         6.9807   -5.7371    0.2843 H         1 <0>         0.1015
     42 H16         5.6913   -6.8277    0.8467 H         1 <0>         0.1153
@<TRIPOS>BOND
     1    1    2 1
     2    1   27 1
     3    1   28 1
     4    1   29 1
     5    2    3 1
     6    3    8 ar
     7    3    4 ar
     8    4    5 ar
     9    4   30 1
    10    5    6 ar
    11    5   31 1
    12    6    7 ar
    13    6   32 1
    14    7   16 1
    15    7    8 ar
    16    8    9 1
    17    9   14 ar
    18    9   10 ar
    19   10   11 ar
    20   10   33 1
    21   11   12 ar
    22   11   34 1
    23   12   13 ar
    24   12   22 1
    25   13   14 ar
    26   13   35 1
    27   14   15 1
    28   15   16 1
    29   15   17 1
    30   15   36 1
    31   17   21 1
    32   17   18 2
    33   18   19 1
    34   18   37 1
    35   19   20 2
    36   19   38 1
    37   20   21 1
    38   20   39 1
    39   22   23 1
    40   23   24 2
    41   23   25 2
    42   23   26 1
    43   26   40 1
    44   26   41 1
    45   26   42 1
@<TRIPOS>MOLECULE
CHEMBL293388__1
   42    45     0     0     0
SMALL
USER_CHARGES

@<TRIPOS>ATOM
      1 C1         -0.0173    1.4248    0.0099 C.3       1 <0>         0.0221
      2 O1          0.0021   -0.0041    0.0020 O.3       1 <0>        -0.2996
      3 C2         -1.1999   -0.6373    0.0101 C.ar      1 <0>         0.1447
      4 C3         -2.3766    0.0983    0.0195 C.ar      1 <0>        -0.2239
      5 C4         -3.5984   -0.5485    0.0307 C.ar      1 <0>        -0.0759
      6 C5         -3.6628   -1.9302    0.0437 C.ar      1 <0>        -0.1654
      7 C6         -2.4989   -2.6793    0.0392 C.ar      1 <0>         0.1372
      8 C7         -1.2590   -2.0276    0.0032 C.ar      1 <0>        -0.0863
      9 C8         -0.0335   -2.8588   -0.0287 C.ar      1 <0>        -0.1468
     10 C9          1.2228   -2.3154    0.2107 C.ar      1 <0>        -0.0342
     11 C10         2.3353   -3.1323    0.1895 C.ar      1 <0>        -0.2548
     12 C11         2.1966   -4.4912   -0.0690 C.ar      1 <0>         0.2949
     13 C12         0.9401   -5.0337   -0.3162 C.ar      1 <0>        -0.1600
     14 C13        -0.1714   -4.2215   -0.3057 C.ar      1 <0>        -0.0777
     15 C14        -1.5376   -4.7727   -0.6192 C.3       1 <0>         0.2295
     16 O2         -2.5439   -4.0345    0.0831 O.3       1 <0>        -0.3007
     17 C15        -1.7832   -4.6813   -2.1032 C.2       1 <0>        -0.1533
     18 C16        -1.6831   -5.6497   -3.0463 C.2       1 <0>        -0.1521
     19 C17        -1.9603   -5.3342   -4.3632 C.2       1 <0>        -0.1532
     20 C18        -2.3240   -4.0657   -4.6726 C.2       1 <0>        -0.1953
     21 S1         -2.2891   -3.2712   -3.0742 S.3       1 <0>         0.0682
     22 N1          3.3242   -5.3152   -0.0809 N.2       1 <0>        -1.0952
     23 S2          4.8221   -4.6731    0.2124 S.o2      1 <0>         2.5260
     24 O3          5.0472   -3.7719   -0.8630 O.2       1 <0>        -1.0283
     25 O4          4.7587   -4.2016    1.5514 O.2       1 <0>        -1.0282
     26 C19         5.9626   -6.0791    0.0985 C.3       1 <0>        -0.6375
     27 H1          1.0053    1.8021    0.0021 H         1 <0>         0.0970
     28 H2         -0.5445    1.7859   -0.8732 H         1 <0>         0.0525
     29 H3         -0.5275    1.7763    0.9067 H         1 <0>         0.0525
     30 H4         -2.3378    1.1776    0.0186 H         1 <0>         0.1251
     31 H5         -4.5104    0.0300    0.0295 H         1 <0>         0.1249
     32 H6         -4.6226   -2.4252    0.0570 H         1 <0>         0.1270
     33 H7          1.3283   -1.2595    0.4119 H         1 <0>         0.1295
     34 H8          3.3144   -2.7153    0.3734 H         1 <0>         0.1051
     35 H9          0.8365   -6.0900   -0.5159 H         1 <0>         0.1166
     36 H10        -1.5833   -5.8179   -0.3132 H         1 <0>         0.1388
     37 H11        -1.3907   -6.6528   -2.7729 H         1 <0>         0.1343
     38 H12        -1.8878   -6.0871   -5.1341 H         1 <0>         0.1297
     39 H13        -2.5741   -3.6456   -5.6356 H         1 <0>         0.1803
     40 H14         5.9000   -6.5180   -0.8973 H         1 <0>         0.1152
     41 H15         6.9811   -5.7366    0.2812 H         1 <0>         0.1016
     42 H16         5.6920   -6.8277    0.8431 H         1 <0>         0.1155
@<TRIPOS>BOND
     1    1    2 1
     2    1   27 1
     3    1   28 1
     4    1   29 1
     5    2    3 1
     6    3    8 ar
     7    3    4 ar
     8    4    5 ar
     9    4   30 1
    10    5    6 ar
    11    5   31 1
    12    6    7 ar
    13    6   32 1
    14    7   16 1
    15    7    8 ar
    16    8    9 1
    17    9   14 ar
    18    9   10 ar
    19   10   11 ar
    20   10   33 1
    21   11   12 ar
    22   11   34 1
    23   12   13 ar
    24   12   22 1
    25   13   14 ar
    26   13   35 1
    27   14   15 1
    28   15   16 1
    29   15   17 1
    30   15   36 1
    31   17   21 1
    32   17   18 2
    33   18   19 1
    34   18   37 1
    35   19   20 2
    36   19   38 1
    37   20   21 1
    38   20   39 1
    39   22   23 1
    40   23   24 2
    41   23   25 2
    42   23   26 1
    43   26   40 1
    44   26   41 1
    45   26   42 1
@<TRIPOS>MOLECULE
CHEMBL1084360
   45    48     0     0     0
SMALL
USER_CHARGES

@<TRIPOS>ATOM
      1 C1          1.4691    2.3208   -1.4678 C.3       1 <0>        -0.6364
      2 S1          2.1390    0.6350   -1.4759 S.o2      1 <0>         2.5287
      3 O1          3.0454    0.4737   -2.5583 O.2       1 <0>        -1.0268
      4 O2          2.5071    0.2483   -0.1590 O.2       1 <0>        -1.0269
      5 N1          0.8504   -0.3331   -1.8560 N.2       1 <0>        -1.0931
      6 C2          1.0193   -1.7159   -1.9480 C.ar      1 <0>         0.2912
      7 C3          2.2686   -2.2796   -1.7148 C.ar      1 <0>        -0.2320
      8 C4          2.4377   -3.6447   -1.8051 C.ar      1 <0>        -0.0452
      9 C5          1.3547   -4.4601   -2.1306 C.ar      1 <0>        -0.1250
     10 C6          0.1032   -3.8930   -2.3640 C.ar      1 <0>        -0.1251
     11 C7         -0.0628   -2.5275   -2.2670 C.ar      1 <0>        -0.1381
     12 C8         -1.0692   -4.7720   -2.7160 C.3       1 <0>         0.5082
     13 F1         -2.2367   -4.0019   -2.7474 F         1 <0>        -0.1811
     14 F2         -0.8580   -5.3502   -3.9723 F         1 <0>        -0.1816
     15 F3         -1.2013   -5.7801   -1.7550 F         1 <0>        -0.1786
     16 C9          1.5345   -5.9296   -2.2288 C.ar      1 <0>        -0.0505
     17 C10         1.2381   -6.5904   -3.4274 C.ar      1 <0>        -0.0624
     18 C11         1.3972   -7.9403   -3.5357 C.ar      1 <0>        -0.1418
     19 C12         1.8590   -8.6803   -2.4492 C.ar      1 <0>         0.1194
     20 C13         2.1614   -8.0280   -1.2377 C.ar      1 <0>        -0.1709
     21 C14         2.0007   -6.6432   -1.1358 C.ar      1 <0>        -0.0282
     22 C15         2.6120   -9.0653   -0.3142 C.2       1 <0>         0.0924
     23 N2          2.5698  -10.2051   -0.9438 N.2       1 <0>        -0.2572
     24 N3          2.1148  -10.0151   -2.2525 N.pl3     1 <0>        -0.3641
     25 C16         1.9469  -11.0244   -3.2093 C.ar      1 <0>         0.1700
     26 C17         0.9084  -10.9460   -4.1278 C.ar      1 <0>        -0.1127
     27 C18         0.7446  -11.9422   -5.0702 C.ar      1 <0>        -0.1257
     28 C19         1.6152  -13.0188   -5.0996 C.ar      1 <0>         0.0838
     29 C20         2.6515  -13.0989   -4.1845 C.ar      1 <0>        -0.1303
     30 C21         2.8223  -12.1020   -3.2441 C.ar      1 <0>        -0.0947
     31 F4          1.4530  -13.9925   -6.0220 F         1 <0>        -0.1383
     32 H1          1.0647    2.5558   -2.4523 H         1 <0>         0.1165
     33 H2          0.6767    2.3933   -0.7228 H         1 <0>         0.1165
     34 H3          2.2633    3.0262   -1.2233 H         1 <0>         0.1031
     35 H4          3.1074   -1.6475   -1.4630 H         1 <0>         0.1116
     36 H5          3.4084   -4.0821   -1.6242 H         1 <0>         0.1154
     37 H6         -1.0335   -2.0881   -2.4435 H         1 <0>         0.1293
     38 H7          0.8793   -6.0249   -4.2747 H         1 <0>         0.1474
     39 H8          1.1645   -8.4372   -4.4659 H         1 <0>         0.1253
     40 H9          2.2335   -6.1342   -0.2122 H         1 <0>         0.1343
     41 H10         2.9252   -8.9145    0.7084 H         1 <0>         0.2020
     42 H11         0.2290  -10.1068   -4.1050 H         1 <0>         0.1431
     43 H12        -0.0632  -11.8818   -5.7845 H         1 <0>         0.1446
     44 H13         3.3294  -13.9393   -4.2091 H         1 <0>         0.1426
     45 H14         3.6335  -12.1624   -2.5337 H         1 <0>         0.1417
@<TRIPOS>BOND
     1    1    2 1
     2    1   32 1
     3    1   33 1
     4    1   34 1
     5    2    3 2
     6    2    4 2
     7    2    5 1
     8    5    6 1
     9    6   11 ar
    10    6    7 ar
    11    7    8 ar
    12    7   35 1
    13    8    9 ar
    14    8   36 1
    15    9   10 ar
    16    9   16 1
    17   10   11 ar
    18   10   12 1
    19   11   37 1
    20   12   13 1
    21   12   14 1
    22   12   15 1
    23   16   21 ar
    24   16   17 ar
    25   17   18 ar
    26   17   38 1
    27   18   19 ar
    28   18   39 1
    29   19   24 1
    30   19   20 ar
    31   20   21 ar
    32   20   22 1
    33   21   40 1
    34   22   23 2
    35   22   41 1
    36   23   24 1
    37   24   25 1
    38   25   30 ar
    39   25   26 ar
    40   26   27 ar
    41   26   42 1
    42   27   28 ar
    43   27   43 1
    44   28   29 ar
    45   28   31 1
    46   29   30 ar
    47   29   44 1
    48   30   45 1
@<TRIPOS>MOLECULE
CHEMBL131855
   39    41     0     0     0
SMALL
USER_CHARGES

@<TRIPOS>ATOM
      1 C1         -1.9614    0.5755    0.3867 C.3       1 <0>        -0.0982
      2 C2         -0.8391   -0.4055    0.1649 C.2       1 <0>        -0.1328
      3 C3         -0.7199   -1.0703   -1.0241 C.2       1 <0>        -0.0659
      4 C4          0.3288   -1.9645   -1.1845 C.2       1 <0>        -0.1381
      5 S1          1.1604   -1.8545    0.3914 S.3       1 <0>         0.1446
      6 C5          0.0941   -0.6463    1.1596 C.2       1 <0>        -0.0694
      7 C6          0.1829   -0.0564    2.5108 C.ar      1 <0>        -0.0709
      8 C7          0.0554    1.3257    2.6783 C.ar      1 <0>        -0.0410
      9 C8          0.1338    1.8851    3.9372 C.ar      1 <0>        -0.1786
     10 C9          0.3406    1.0747    5.0406 C.ar      1 <0>         0.2321
     11 C10         0.4752   -0.3159    4.8831 C.ar      1 <0>        -0.1150
     12 C11         0.3882   -0.8806    3.6182 C.ar      1 <0>        -0.0434
     13 C12         0.7065   -1.1460    6.0825 C.2       1 <0>        -0.0614
     14 C13         0.4760   -0.6380    7.2865 C.2       1 <0>        -0.1749
     15 C14        -0.0338    0.7688    7.4520 C.3       1 <0>         0.2136
     16 N1          0.4191    1.6014    6.3300 N.pl3     1 <0>        -0.7389
     17 C15         0.4981    1.3508    8.7632 C.3       1 <0>        -0.1531
     18 C16        -1.5633    0.7538    7.4889 C.3       1 <0>        -0.1582
     19 C17         1.2021   -2.5620    5.9398 C.3       1 <0>        -0.1179
     20 C18         0.6590   -2.7694   -2.3219 C.1       1 <0>         0.2932
     21 N2          0.9209   -3.4079   -3.2242 N.1       1 <0>        -0.3971
     22 H1         -1.6137    1.5830    0.1585 H         1 <0>         0.0715
     23 H2         -2.7982    0.3236   -0.2649 H         1 <0>         0.0683
     24 H3         -2.2841    0.5294    1.4268 H         1 <0>         0.0719
     25 H4         -1.4280   -0.9029   -1.8221 H         1 <0>         0.1461
     26 H5         -0.1056    1.9587    1.8181 H         1 <0>         0.1300
     27 H6          0.0344    2.9533    4.0616 H         1 <0>         0.1301
     28 H7          0.4827   -1.9490    3.4915 H         1 <0>         0.1298
     29 H8          0.6567   -1.2439    8.1621 H         1 <0>         0.1238
     30 H9          0.7637    2.4953    6.4816 H         1 <0>         0.4039
     31 H10         1.5879    1.3587    8.7416 H         1 <0>         0.0635
     32 H11         0.1298    2.3695    8.8845 H         1 <0>         0.0639
     33 H12         0.1556    0.7389    9.5977 H         1 <0>         0.0750
     34 H13        -1.9005    0.1434    8.3267 H         1 <0>         0.0667
     35 H14        -1.9338    1.7719    7.6088 H         1 <0>         0.0605
     36 H15        -1.9451    0.3354    6.5577 H         1 <0>         0.0577
     37 H16         2.2920   -2.5683    5.9502 H         1 <0>         0.0718
     38 H17         0.8274   -3.1633    6.7682 H         1 <0>         0.0688
     39 H18         0.8453   -2.9786    4.9979 H         1 <0>         0.0677
@<TRIPOS>BOND
     1    1    2 1
     2    1   22 1
     3    1   23 1
     4    1   24 1
     5    2    6 2
     6    2    3 1
     7    3    4 2
     8    3   25 1
     9    4    5 1
    10    4   20 1
    11    5    6 1
    12    6    7 1
    13    7   12 ar
    14    7    8 ar
    15    8    9 ar
    16    8   26 1
    17    9   10 ar
    18    9   27 1
    19   10   16 1
    20   10   11 ar
    21   11   12 ar
    22   11   13 1
    23   12   28 1
    24   13   14 2
    25   13   19 1
    26   14   15 1
    27   14   29 1
    28   15   16 1
    29   15   17 1
    30   15   18 1
    31   16   30 1
    32   17   31 1
    33   17   32 1
    34   17   33 1
    35   18   34 1
    36   18   35 1
    37   18   36 1
    38   19   37 1
    39   19   38 1
    40   19   39 1
    41   20   21 3
@<TRIPOS>MOLECULE
CHEMBL134260
   41    43     0     0     0
SMALL
USER_CHARGES

@<TRIPOS>ATOM
      1 C1         -1.9609    0.5762    0.3864 C.3       1 <0>        -0.0970
      2 C2         -0.8390   -0.4052    0.1648 C.2       1 <0>        -0.1371
      3 C3         -0.7198   -1.0700   -1.0241 C.2       1 <0>        -0.0646
      4 C4          0.3286   -1.9646   -1.1844 C.2       1 <0>        -0.1411
      5 S1          1.1601   -1.8549    0.3915 S.3       1 <0>         0.1407
      6 C5          0.0941   -0.6464    1.1597 C.2       1 <0>        -0.0626
      7 C6          0.1830   -0.0566    2.5107 C.ar      1 <0>        -0.0811
      8 C7          0.0562    1.3241    2.6817 C.ar      1 <0>        -0.0410
      9 C8          0.1420    1.8670    3.9438 C.ar      1 <0>        -0.1922
     10 C9          0.3536    1.0450    5.0481 C.ar      1 <0>         0.2395
     11 C10         0.4772   -0.3280    4.8846 C.ar      1 <0>        -0.1473
     12 C11         0.3881   -0.8777    3.6200 C.ar      1 <0>        -0.0478
     13 C12         0.6959   -1.2438    6.0603 C.3       1 <0>        -0.0442
     14 C13         1.2526   -0.4630    7.2506 C.3       1 <0>        -0.1217
     15 C14         0.3610    0.7601    7.5016 C.3       1 <0>         0.1722
     16 N1          0.4414    1.6251    6.3170 N.pl3     1 <0>        -0.7367
     17 C15         0.8585    1.5200    8.7328 C.3       1 <0>        -0.1545
     18 C16        -1.0855    0.3111    7.7181 C.3       1 <0>        -0.1621
     19 C17         1.6872   -2.3412    5.6681 C.3       1 <0>        -0.1474
     20 C18         0.6589   -2.7692   -2.3220 C.1       1 <0>         0.2939
     21 N2          0.9209   -3.4076   -3.2244 N.1       1 <0>        -0.3989
     22 H1         -1.6128    1.5836    0.1583 H         1 <0>         0.0706
     23 H2         -2.7977    0.3247   -0.2653 H         1 <0>         0.0673
     24 H3         -2.2838    0.5302    1.4265 H         1 <0>         0.0716
     25 H4         -1.4277   -0.9023   -1.8223 H         1 <0>         0.1453
     26 H5         -0.1082    1.9633    1.8268 H         1 <0>         0.1274
     27 H6          0.0451    2.9342    4.0782 H         1 <0>         0.1258
     28 H7          0.4821   -1.9456    3.4893 H         1 <0>         0.1266
     29 H8         -0.2529   -1.7006    6.3418 H         1 <0>         0.0815
     30 H9          1.2567   -1.0997    8.1353 H         1 <0>         0.0779
     31 H10         2.2684   -0.1353    7.0295 H         1 <0>         0.0716
     32 H11         0.5534    2.5838    6.4137 H         1 <0>         0.4017
     33 H12         1.8840    1.8496    8.5665 H         1 <0>         0.0632
     34 H13         0.2216    2.3874    8.9063 H         1 <0>         0.0626
     35 H14         0.8242    0.8643    9.6029 H         1 <0>         0.0740
     36 H15        -1.1344   -0.3537    8.5805 H         1 <0>         0.0659
     37 H16        -1.7141    1.1837    7.8959 H         1 <0>         0.0585
     38 H17        -1.4387   -0.2166    6.8321 H         1 <0>         0.0630
     39 H18         2.6348   -1.8879    5.3773 H         1 <0>         0.0579
     40 H19         1.8478   -3.0060    6.5168 H         1 <0>         0.0591
     41 H20         1.2851   -2.9116    4.8308 H         1 <0>         0.0595
@<TRIPOS>BOND
     1    1    2 1
     2    1   22 1
     3    1   23 1
     4    1   24 1
     5    2    6 2
     6    2    3 1
     7    3    4 2
     8    3   25 1
     9    4    5 1
    10    4   20 1
    11    5    6 1
    12    6    7 1
    13    7   12 ar
    14    7    8 ar
    15    8    9 ar
    16    8   26 1
    17    9   10 ar
    18    9   27 1
    19   10   16 1
    20   10   11 ar
    21   11   12 ar
    22   11   13 1
    23   12   28 1
    24   13   14 1
    25   13   19 1
    26   13   29 1
    27   14   15 1
    28   14   30 1
    29   14   31 1
    30   15   16 1
    31   15   17 1
    32   15   18 1
    33   16   32 1
    34   17   33 1
    35   17   34 1
    36   17   35 1
    37   18   36 1
    38   18   37 1
    39   18   38 1
    40   19   39 1
    41   19   40 1
    42   19   41 1
    43   20   21 3
@<TRIPOS>MOLECULE
CHEMBL134260__1
   41    43     0     0     0
SMALL
USER_CHARGES

@<TRIPOS>ATOM
      1 C1         -1.9609    0.5763    0.3864 C.3       1 <0>        -0.0969
      2 C2         -0.8389   -0.4051    0.1648 C.2       1 <0>        -0.1371
      3 C3         -0.7197   -1.0699   -1.0241 C.2       1 <0>        -0.0646
      4 C4          0.3286   -1.9646   -1.1844 C.2       1 <0>        -0.1410
      5 S1          1.1601   -1.8550    0.3916 S.3       1 <0>         0.1403
      6 C5          0.0941   -0.6464    1.1597 C.2       1 <0>        -0.0624
      7 C6          0.1830   -0.0566    2.5107 C.ar      1 <0>        -0.0812
      8 C7          0.0562    1.3241    2.6817 C.ar      1 <0>        -0.0410
      9 C8          0.1383    1.8666    3.9443 C.ar      1 <0>        -0.1922
     10 C9          0.3487    1.0444    5.0487 C.ar      1 <0>         0.2395
     11 C10         0.4787   -0.3278    4.8844 C.ar      1 <0>        -0.1474
     12 C11         0.3881   -0.8777    3.6200 C.ar      1 <0>        -0.0478
     13 C12         0.7172   -1.2415    6.0579 C.3       1 <0>        -0.0444
     14 C13         0.2864   -0.5651    7.3591 C.3       1 <0>        -0.1216
     15 C14         0.9391    0.8212    7.4367 C.3       1 <0>         0.1722
     16 N1          0.4236    1.6232    6.3190 N.pl3     1 <0>        -0.7367
     17 C15         0.5780    1.4903    8.7643 C.3       1 <0>        -0.1544
     18 C16         2.4586    0.6857    7.3200 C.3       1 <0>        -0.1623
     19 C17        -0.0875   -2.5288    5.8674 C.3       1 <0>        -0.1471
     20 C18         0.6589   -2.7693   -2.3219 C.1       1 <0>         0.2939
     21 N2          0.9209   -3.4076   -3.2244 N.1       1 <0>        -0.3989
     22 H1         -1.6127    1.5837    0.1583 H         1 <0>         0.0706
     23 H2         -2.7976    0.3248   -0.2653 H         1 <0>         0.0673
     24 H3         -2.2838    0.5303    1.4264 H         1 <0>         0.0716
     25 H4         -1.4277   -0.9022   -1.8223 H         1 <0>         0.1453
     26 H5         -0.1054    1.9636    1.8265 H         1 <0>         0.1274
     27 H6          0.0396    2.9336    4.0789 H         1 <0>         0.1258
     28 H7          0.4809   -1.9457    3.4894 H         1 <0>         0.1267
     29 H8          1.7780   -1.4860    6.1137 H         1 <0>         0.0814
     30 H9         -0.7984   -0.4594    7.3739 H         1 <0>         0.0717
     31 H10         0.6080   -1.1683    8.2081 H         1 <0>         0.0779
     32 H11         0.1401    2.5400    6.4602 H         1 <0>         0.4017
     33 H12         0.9370    0.8762    9.5902 H         1 <0>         0.0740
     34 H13         1.0442    2.4743    8.8139 H         1 <0>         0.0626
     35 H14        -0.5045    1.5972    8.8348 H         1 <0>         0.0632
     36 H15         2.7098    0.2219    6.3661 H         1 <0>         0.0630
     37 H16         2.9168    1.6731    7.3757 H         1 <0>         0.0585
     38 H17         2.8317    0.0655    8.1350 H         1 <0>         0.0660
     39 H18         0.2299   -3.0232    4.9493 H         1 <0>         0.0595
     40 H19         0.0829   -3.1925    6.7151 H         1 <0>         0.0589
     41 H20        -1.1485   -2.2877    5.8022 H         1 <0>         0.0579
@<TRIPOS>BOND
     1    1    2 1
     2    1   22 1
     3    1   23 1
     4    1   24 1
     5    2    6 2
     6    2    3 1
     7    3    4 2
     8    3   25 1
     9    4    5 1
    10    4   20 1
    11    5    6 1
    12    6    7 1
    13    7   12 ar
    14    7    8 ar
    15    8    9 ar
    16    8   26 1
    17    9   10 ar
    18    9   27 1
    19   10   16 1
    20   10   11 ar
    21   11   12 ar
    22   11   13 1
    23   12   28 1
    24   13   14 1
    25   13   19 1
    26   13   29 1
    27   14   15 1
    28   14   30 1
    29   14   31 1
    30   15   16 1
    31   15   17 1
    32   15   18 1
    33   16   32 1
    34   17   33 1
    35   17   34 1
    36   17   35 1
    37   18   36 1
    38   18   37 1
    39   18   38 1
    40   19   39 1
    41   19   40 1
    42   19   41 1
    43   20   21 3
@<TRIPOS>MOLECULE
CHEMBL247006
   75    79     0     0     0
SMALL
USER_CHARGES

@<TRIPOS>ATOM
      1 C1          0.9714    1.9920    0.3895 C.3       1 <0>        -0.1373
      2 C2          1.0322    0.4695    0.5277 C.3       1 <0>        -0.0378
      3 C3          2.0162    0.0971    1.6385 C.3       1 <0>        -0.1412
      4 C4         -0.3576   -0.0669    0.8764 C.3       1 <0>        -0.1475
      5 C5          1.4919   -0.1351   -0.7740 C.ar      1 <0>        -0.0073
      6 C6          0.6760   -1.0229   -1.4499 C.ar      1 <0>        -0.1413
      7 C7          1.0976   -1.5775   -2.6439 C.ar      1 <0>        -0.0160
      8 C8          2.3350   -1.2438   -3.1622 C.ar      1 <0>        -0.6835
      9 C9          3.1505   -0.3553   -2.4867 C.ar      1 <0>        -0.0139
     10 C10         2.7270    0.2026   -1.2949 C.ar      1 <0>        -0.1326
     11 S1          2.8729   -1.9516   -4.6835 S.o2      1 <0>         2.6867
     12 O1          4.2929   -1.8976   -4.6769 O.2       1 <0>        -0.9517
     13 O2          2.1576   -3.1694   -4.8402 O.2       1 <0>        -0.9522
     14 N1          2.3666   -0.9456   -5.8976 N.pl3     1 <0>        -0.9946
     15 C11         1.0512   -1.1325   -6.5254 C.3       1 <0>         0.1205
     16 C12         0.2380    0.1525   -6.3383 C.3       1 <0>        -0.1155
     17 C13         1.0838    1.3345   -6.7774 C.2       1 <0>        -0.0194
     18 C14         0.5413    2.1966   -7.6369 C.2       1 <0>        -0.2259
     19 C15         1.3041    3.3691   -8.0792 C.2       1 <0>         0.3909
     20 O3          1.0442    3.9494   -9.1125 O.2       1 <0>        -0.4598
     21 C16         2.4358    3.8152   -7.1736 C.3       1 <0>        -0.1873
     22 C17         3.2853    2.5837   -6.8650 C.3       1 <0>        -0.0999
     23 C18         2.4678    1.4783   -6.2206 C.3       1 <0>        -0.0393
     24 C19         3.2203    0.1533   -6.3631 C.3       1 <0>         0.1283
     25 C20         2.3519    1.7800   -4.7251 C.3       1 <0>        -0.0707
     26 C21         1.6725    3.1113   -4.5324 C.ar      1 <0>        -0.1359
     27 C22         2.4293    4.2443   -4.2960 C.ar      1 <0>        -0.0638
     28 C23         1.8099    5.4658   -4.1189 C.ar      1 <0>        -0.2007
     29 C24         0.4250    5.5557   -4.1786 C.ar      1 <0>         0.2217
     30 C25        -0.3323    4.4156   -4.4163 C.ar      1 <0>        -0.1962
     31 C26         0.2939    3.1982   -4.5980 C.ar      1 <0>        -0.0600
     32 N2         -0.2048    6.7895   -3.9995 N.pl3     1 <0>        -0.6317
     33 C27        -1.6713    6.8882   -3.9286 C.3       1 <0>         0.0863
     34 C28        -2.0416    7.6967   -2.6800 C.3       1 <0>         0.0464
     35 O4         -1.3218    8.9318   -2.6884 O.3       1 <0>        -0.3784
     36 C29         0.0987    8.7818   -2.6297 C.3       1 <0>         0.0459
     37 C30         0.5789    8.0282   -3.8701 C.3       1 <0>         0.0854
     38 H1          1.9615    2.3741    0.1410 H         1 <0>         0.0588
     39 H2          0.2704    2.2573   -0.4019 H         1 <0>         0.0578
     40 H3          0.6389    2.4293    1.3309 H         1 <0>         0.0613
     41 H4          1.6837    0.5344    2.5800 H         1 <0>         0.0631
     42 H5          2.0595   -0.9876    1.7370 H         1 <0>         0.0584
     43 H6          3.0063    0.4792    1.3901 H         1 <0>         0.0593
     44 H7         -1.0586    0.1984    0.0850 H         1 <0>         0.0603
     45 H8         -0.3143   -1.1516    0.9749 H         1 <0>         0.0608
     46 H9         -0.6901    0.3704    1.8179 H         1 <0>         0.0621
     47 H10        -0.2907   -1.2836   -1.0450 H         1 <0>         0.1359
     48 H11         0.4605   -2.2717   -3.1717 H         1 <0>         0.1375
     49 H12         4.1173   -0.0948   -2.8914 H         1 <0>         0.1374
     50 H13         3.3626    0.8997   -0.7690 H         1 <0>         0.1305
     51 H14         1.1782   -1.3342   -7.5890 H         1 <0>         0.0855
     52 H15         0.5337   -1.9661   -6.0505 H         1 <0>         0.1010
     53 H16        -0.6660    0.1044   -6.9454 H         1 <0>         0.0927
     54 H17        -0.0304    0.2654   -5.2879 H         1 <0>         0.0879
     55 H18        -0.4595    2.0318   -8.0080 H         1 <0>         0.1334
     56 H19         3.0419    4.5661   -7.6803 H         1 <0>         0.0870
     57 H20         2.0304    4.2269   -6.2493 H         1 <0>         0.1263
     58 H21         3.7183    2.2099   -7.7928 H         1 <0>         0.0709
     59 H22         4.0913    2.8691   -6.1889 H         1 <0>         0.0841
     60 H23         4.1300    0.1868   -5.7635 H         1 <0>         0.1026
     61 H24         3.4789   -0.0048   -7.4101 H         1 <0>         0.0850
     62 H25         1.7651    0.9992   -4.2413 H         1 <0>         0.0799
     63 H26         3.3477    1.8129   -4.2829 H         1 <0>         0.0780
     64 H27         3.5060    4.1737   -4.2493 H         1 <0>         0.1227
     65 H28         2.4015    6.3502   -3.9339 H         1 <0>         0.1224
     66 H29        -1.4092    4.4819   -4.4629 H         1 <0>         0.1199
     67 H30        -0.2939    2.3121   -4.7872 H         1 <0>         0.1180
     68 H31        -2.0487    7.3928   -4.8180 H         1 <0>         0.0711
     69 H32        -2.1036    5.8898   -3.8611 H         1 <0>         0.0919
     70 H33        -3.1126    7.8994   -2.6819 H         1 <0>         0.1052
     71 H34        -1.7795    7.1286   -1.7874 H         1 <0>         0.0552
     72 H35         0.5675    9.7652   -2.5954 H         1 <0>         0.1057
     73 H36         0.3686    8.2177   -1.7369 H         1 <0>         0.0550
     74 H37         1.6359    7.7845   -3.7639 H         1 <0>         0.0932
     75 H38         0.4319    8.6496   -4.7535 H         1 <0>         0.0713
@<TRIPOS>BOND
     1    1    2 1
     2    1   38 1
     3    1   39 1
     4    1   40 1
     5    2    3 1
     6    2    4 1
     7    2    5 1
     8    3   41 1
     9    3   42 1
    10    3   43 1
    11    4   44 1
    12    4   45 1
    13    4   46 1
    14    5   10 ar
    15    5    6 ar
    16    6    7 ar
    17    6   47 1
    18    7    8 ar
    19    7   48 1
    20    8    9 ar
    21    8   11 1
    22    9   10 ar
    23    9   49 1
    24   10   50 1
    25   11   12 2
    26   11   13 2
    27   11   14 1
    28   14   24 1
    29   14   15 1
    30   15   16 1
    31   15   51 1
    32   15   52 1
    33   16   17 1
    34   16   53 1
    35   16   54 1
    36   17   23 1
    37   17   18 2
    38   18   19 1
    39   18   55 1
    40   19   20 2
    41   19   21 1
    42   21   22 1
    43   21   56 1
    44   21   57 1
    45   22   23 1
    46   22   58 1
    47   22   59 1
    48   23   24 1
    49   23   25 1
    50   24   60 1
    51   24   61 1
    52   25   26 1
    53   25   62 1
    54   25   63 1
    55   26   31 ar
    56   26   27 ar
    57   27   28 ar
    58   27   64 1
    59   28   29 ar
    60   28   65 1
    61   29   30 ar
    62   29   32 1
    63   30   31 ar
    64   30   66 1
    65   31   67 1
    66   32   37 1
    67   32   33 1
    68   33   34 1
    69   33   68 1
    70   33   69 1
    71   34   35 1
    72   34   70 1
    73   34   71 1
    74   35   36 1
    75   36   37 1
    76   36   72 1
    77   36   73 1
    78   37   74 1
    79   37   75 1
@<TRIPOS>MOLECULE
CHEMBL247006__1
   75    79     0     0     0
SMALL
USER_CHARGES

@<TRIPOS>ATOM
      1 C1          0.9450    2.2388    0.3007 C.3       1 <0>        -0.1401
      2 C2          1.1423    0.7348    0.5002 C.3       1 <0>        -0.0391
      3 C3          2.1106    0.4970    1.6607 C.3       1 <0>        -0.1412
      4 C4         -0.2043    0.0814    0.8175 C.3       1 <0>        -0.1480
      5 C5          1.7093    0.1311   -0.7588 C.ar      1 <0>        -0.0107
      6 C6          1.0083   -0.8536   -1.4296 C.ar      1 <0>        -0.1420
      7 C7          1.5284   -1.4073   -2.5845 C.ar      1 <0>        -0.0173
      8 C8          2.7492   -0.9761   -3.0689 C.ar      1 <0>        -0.6845
      9 C9          3.4497    0.0093   -2.3985 C.ar      1 <0>        -0.0173
     10 C10         2.9276    0.5660   -1.2460 C.ar      1 <0>        -0.1364
     11 S1          3.4127   -1.6827   -4.5403 S.o2      1 <0>         2.6875
     12 O1          4.8199   -1.4938   -4.4828 O.2       1 <0>        -0.9492
     13 O2          2.8215   -2.9677   -4.6761 O.2       1 <0>        -0.9519
     14 N1          2.8645   -0.7728   -5.8107 N.pl3     1 <0>        -0.9964
     15 C11         1.5991   -1.1060   -6.4794 C.3       1 <0>         0.1206
     16 C12         1.8893   -1.3739   -7.9598 C.3       1 <0>        -0.1117
     17 C13         2.7146   -0.2252   -8.5119 C.2       1 <0>        -0.0207
     18 C14         2.2938    0.3528   -9.6367 C.2       1 <0>        -0.2272
     19 C15         3.0633    1.4531  -10.2278 C.2       1 <0>         0.3912
     20 O3          2.5573    2.2524  -10.9876 O.2       1 <0>        -0.4607
     21 C16         4.5260    1.5365   -9.8363 C.3       1 <0>        -0.1866
     22 C17         4.5952    1.4596   -8.3122 C.3       1 <0>        -0.0994
     23 C18         3.9541    0.1905   -7.7791 C.3       1 <0>        -0.0346
     24 C19         3.6299    0.3852   -6.2865 C.3       1 <0>         0.1280
     25 C20         4.9762   -0.9428   -7.8882 C.3       1 <0>        -0.0652
     26 C21         5.4015   -1.0990   -9.3255 C.ar      1 <0>        -0.1395
     27 C22         4.5928   -1.7841  -10.2137 C.ar      1 <0>        -0.0629
     28 C23         4.9795   -1.9292  -11.5315 C.ar      1 <0>        -0.1967
     29 C24         6.1824   -1.3859  -11.9645 C.ar      1 <0>         0.2201
     30 C25         6.9924   -0.6982  -11.0697 C.ar      1 <0>        -0.1996
     31 C26         6.5969   -0.5520   -9.7545 C.ar      1 <0>        -0.0638
     32 N2          6.5769   -1.5311  -13.2965 N.pl3     1 <0>        -0.6321
     33 C27         7.9019   -1.0773  -13.7479 C.3       1 <0>         0.0863
     34 C28         8.5691   -2.2231  -14.5172 C.3       1 <0>         0.0457
     35 O4          7.6779   -2.6899  -15.5329 O.3       1 <0>        -0.3789
     36 C29         6.4553   -3.2367  -15.0327 C.3       1 <0>         0.0458
     37 C30         5.6820   -2.1479  -14.2885 C.3       1 <0>         0.0854
     38 H1          1.9043    2.7043    0.0746 H         1 <0>         0.0593
     39 H2          0.2551    2.4082   -0.5261 H         1 <0>         0.0581
     40 H3          0.5349    2.6754    1.2113 H         1 <0>         0.0640
     41 H4          1.7005    0.9336    2.5714 H         1 <0>         0.0642
     42 H5          2.2512   -0.5745    1.8029 H         1 <0>         0.0587
     43 H6          3.0699    0.9624    1.4347 H         1 <0>         0.0596
     44 H7         -0.8941    0.2508   -0.0092 H         1 <0>         0.0608
     45 H8         -0.0637   -0.9901    0.9597 H         1 <0>         0.0611
     46 H9         -0.6144    0.5180    1.7282 H         1 <0>         0.0634
     47 H10         0.0546   -1.1905   -1.0513 H         1 <0>         0.1378
     48 H11         0.9811   -2.1771   -3.1083 H         1 <0>         0.1387
     49 H12         4.4037    0.3460   -2.7767 H         1 <0>         0.1393
     50 H13         3.4732    1.3384   -0.7243 H         1 <0>         0.1325
     51 H14         1.1673   -1.9969   -6.0236 H         1 <0>         0.1007
     52 H15         0.9050   -0.2705   -6.3875 H         1 <0>         0.0792
     53 H16         2.4463   -2.3054   -8.0602 H         1 <0>         0.0914
     54 H17         0.9504   -1.4462   -8.5089 H         1 <0>         0.0931
     55 H18         1.3868    0.0110  -10.1130 H         1 <0>         0.1340
     56 H19         5.0751    0.7031  -10.2747 H         1 <0>         0.1262
     57 H20         4.9482    2.4810  -10.1793 H         1 <0>         0.0872
     58 H21         5.6400    1.4863   -8.0027 H         1 <0>         0.0853
     59 H22         4.0794    2.3220   -7.8897 H         1 <0>         0.0694
     60 H23         3.0390    1.2915   -6.1544 H         1 <0>         0.0793
     61 H24         4.5565    0.4676   -5.7184 H         1 <0>         0.1038
     62 H25         5.8463   -0.7075   -7.2754 H         1 <0>         0.0866
     63 H26         4.5266   -1.8724   -7.5393 H         1 <0>         0.0712
     64 H27         3.6579   -2.2066   -9.8763 H         1 <0>         0.1199
     65 H28         4.3477   -2.4647  -12.2245 H         1 <0>         0.1213
     66 H29         7.9284   -0.2749  -11.4030 H         1 <0>         0.1230
     67 H30         7.2241   -0.0137   -9.0593 H         1 <0>         0.1245
     68 H31         7.7906   -0.2121  -14.4015 H         1 <0>         0.0710
     69 H32         8.5120   -0.8101  -12.8851 H         1 <0>         0.0929
     70 H33         9.4900   -1.8649  -14.9775 H         1 <0>         0.1054
     71 H34         8.7975   -3.0382  -13.8306 H         1 <0>         0.0558
     72 H35         5.8555   -3.6077  -15.8637 H         1 <0>         0.1055
     73 H36         6.6760   -4.0555  -14.3479 H         1 <0>         0.0555
     74 H37         4.8229   -2.5894  -13.7835 H         1 <0>         0.0929
     75 H38         5.3434   -1.3923  -14.9975 H         1 <0>         0.0711
@<TRIPOS>BOND
     1    1    2 1
     2    1   38 1
     3    1   39 1
     4    1   40 1
     5    2    3 1
     6    2    4 1
     7    2    5 1
     8    3   41 1
     9    3   42 1
    10    3   43 1
    11    4   44 1
    12    4   45 1
    13    4   46 1
    14    5   10 ar
    15    5    6 ar
    16    6    7 ar
    17    6   47 1
    18    7    8 ar
    19    7   48 1
    20    8    9 ar
    21    8   11 1
    22    9   10 ar
    23    9   49 1
    24   10   50 1
    25   11   12 2
    26   11   13 2
    27   11   14 1
    28   14   24 1
    29   14   15 1
    30   15   16 1
    31   15   51 1
    32   15   52 1
    33   16   17 1
    34   16   53 1
    35   16   54 1
    36   17   23 1
    37   17   18 2
    38   18   19 1
    39   18   55 1
    40   19   20 2
    41   19   21 1
    42   21   22 1
    43   21   56 1
    44   21   57 1
    45   22   23 1
    46   22   58 1
    47   22   59 1
    48   23   24 1
    49   23   25 1
    50   24   60 1
    51   24   61 1
    52   25   26 1
    53   25   62 1
    54   25   63 1
    55   26   31 ar
    56   26   27 ar
    57   27   28 ar
    58   27   64 1
    59   28   29 ar
    60   28   65 1
    61   29   30 ar
    62   29   32 1
    63   30   31 ar
    64   30   66 1
    65   31   67 1
    66   32   37 1
    67   32   33 1
    68   33   34 1
    69   33   68 1
    70   33   69 1
    71   34   35 1
    72   34   70 1
    73   34   71 1
    74   35   36 1
    75   36   37 1
    76   36   72 1
    77   36   73 1
    78   37   74 1
    79   37   75 1
@<TRIPOS>MOLECULE
CHEMBL569290
   54    58     0     0     0
SMALL
USER_CHARGES

@<TRIPOS>ATOM
      1 C1          0.9468    0.4106    0.2192 C.3       1 <0>        -0.1790
      2 C2          0.5669   -0.9780   -0.2988 C.3       1 <0>        -0.0416
      3 C3         -0.9387   -1.1784   -0.0664 C.3       1 <0>         0.0616
      4 N1         -1.3468   -2.2927    0.7988 N.pl3     1 <0>        -0.4009
      5 C4         -2.5562   -2.7131    1.2261 C.cat     1 <0>         0.2870
      6 N2         -2.4063   -3.7527    1.9995 N.pl3     1 <0>        -0.4622
      7 C5         -1.0985   -4.0529    2.1034 C.2       1 <0>         0.0882
      8 C6         -0.4005   -3.1312    1.3361 C.2       1 <0>         0.1147
      9 C7          1.0286   -2.9740    1.0622 C.2       1 <0>        -0.1384
     10 C8          1.5077   -1.9862    0.3252 C.2       1 <0>        -0.0188
     11 C9          2.9856   -1.8682    0.0436 C.3       1 <0>        -0.0896
     12 C10         3.1831   -1.8155   -1.4764 C.3       1 <0>        -0.1195
     13 C11         2.3107   -0.7058   -2.0652 C.3       1 <0>        -0.1237
     14 C12         0.8333   -1.0058   -1.8043 C.3       1 <0>        -0.0902
     15 H1          0.5874   -1.9917   -2.1988 H         1 <0>         0.1009
     16 C13        -0.0315    0.0506   -2.4950 C.3       1 <0>         0.2249
     17 C14         0.4539    0.2466   -3.9327 C.3       1 <0>        -0.1377
     18 C15        -1.4677   -0.4057   -2.5075 C.2       1 <0>         0.0036
     19 N3         -1.9649   -1.5145   -2.9960 N.2       1 <0>        -0.4957
     20 C16        -3.2554   -1.7747   -2.9309 C.2       1 <0>         0.0302
     21 C17        -4.0419   -0.8418   -2.3355 C.2       1 <0>        -0.2141
     22 S1         -2.8207    0.3826   -1.8905 S.3       1 <0>         0.1029
     23 O1          0.0693    1.2869   -1.7855 O.3       1 <0>        -0.5333
     24 C18        -0.5127   -5.1616    2.8914 C.ar      1 <0>        -0.0756
     25 C19         0.6059   -4.9352    3.6935 C.ar      1 <0>        -0.0506
     26 C20         1.1478   -5.9712    4.4255 C.ar      1 <0>        -0.1471
     27 C21         0.5833   -7.2352    4.3646 C.ar      1 <0>         0.1375
     28 C22        -0.5276   -7.4653    3.5690 C.ar      1 <0>        -0.1472
     29 C23        -1.0811   -6.4344    2.8383 C.ar      1 <0>        -0.0633
     30 F1          1.1180   -8.2467    5.0831 F         1 <0>        -0.1226
     31 H2          1.4836    0.9541   -0.5583 H         1 <0>         0.1214
     32 H3          0.0433    0.9581    0.4874 H         1 <0>         0.0641
     33 H4          1.5842    0.3088    1.0975 H         1 <0>         0.0741
     34 H5         -1.3359   -0.2587    0.3633 H         1 <0>         0.1147
     35 H6         -1.4111   -1.3196   -1.0385 H         1 <0>         0.1315
     36 H7         -3.5014   -2.2589    0.9679 H         1 <0>         0.2584
     37 H8          1.7206   -3.6807    1.4959 H         1 <0>         0.1559
     38 H9          3.3743   -0.9561    0.4965 H         1 <0>         0.0969
     39 H10         3.5077   -2.7334    0.4522 H         1 <0>         0.0900
     40 H11         4.2303   -1.6117   -1.7000 H         1 <0>         0.0862
     41 H12         2.8978   -2.7725   -1.9133 H         1 <0>         0.0707
     42 H13         2.5739    0.2451   -1.6021 H         1 <0>         0.0868
     43 H14         2.4825   -0.6425   -3.1397 H         1 <0>         0.0882
     44 H15         0.6329   -0.7258   -4.3914 H         1 <0>         0.0855
     45 H16        -0.3049    0.7830   -4.5024 H         1 <0>         0.0696
     46 H17         1.3795    0.8222   -3.9284 H         1 <0>         0.0902
     47 H18        -3.6684   -2.6879   -3.3332 H         1 <0>         0.1835
     48 H19        -5.1096   -0.8420   -2.1727 H         1 <0>         0.2081
     49 H20        -0.4268    1.3058   -0.9557 H         1 <0>         0.3749
     50 H21         1.0471   -3.9506    3.7410 H         1 <0>         0.1433
     51 H22         2.0139   -5.7969    5.0468 H         1 <0>         0.1524
     52 H23        -0.9636   -8.4523    3.5243 H         1 <0>         0.1509
     53 H24        -1.9498   -6.6136    2.2222 H         1 <0>         0.1370
     54 H25        -3.1271   -4.2353    2.4335 H         1 <0>         0.4653
@<TRIPOS>BOND
     1    1    2 1
     2    1   31 1
     3    1   32 1
     4    1   33 1
     5    2   10 1
     6    2   14 1
     7    2    3 1
     8    3    4 1
     9    3   34 1
    10    3   35 1
    11    4    8 1
    12    4    5 1
    13    5    6 2
    14    5   36 1
    15    6    7 1
    16    6   54 1
    17    7    8 2
    18    7   24 1
    19    8    9 1
    20    9   10 2
    21    9   37 1
    22   10   11 1
    23   11   12 1
    24   11   38 1
    25   11   39 1
    26   12   13 1
    27   12   40 1
    28   12   41 1
    29   13   14 1
    30   13   42 1
    31   13   43 1
    32   14   15 1
    33   14   16 1
    34   16   17 1
    35   16   18 1
    36   16   23 1
    37   17   44 1
    38   17   45 1
    39   17   46 1
    40   18   22 1
    41   18   19 2
    42   19   20 1
    43   20   21 2
    44   20   47 1
    45   21   22 1
    46   21   48 1
    47   23   49 1
    48   24   29 ar
    49   24   25 ar
    50   25   26 ar
    51   25   50 1
    52   26   27 ar
    53   26   51 1
    54   27   28 ar
    55   27   30 1
    56   28   29 ar
    57   28   52 1
    58   29   53 1
@<TRIPOS>MOLECULE
CHEMBL569290__1
   53    57     0     0     0
SMALL
USER_CHARGES

@<TRIPOS>ATOM
      1 C1          0.9468    0.4106    0.2192 C.3       1 <0>        -0.1726
      2 C2          0.5669   -0.9780   -0.2988 C.3       1 <0>        -0.0272
      3 C3         -0.9387   -1.1784   -0.0664 C.3       1 <0>         0.0763
      4 N1         -1.3468   -2.2927    0.7988 N.pl3     1 <0>        -0.4439
      5 C4         -2.5562   -2.7131    1.2261 C.2       1 <0>         0.1988
      6 N2         -2.4063   -3.7527    1.9995 N.2       1 <0>        -0.4691
      7 C5         -1.0985   -4.0529    2.1034 C.2       1 <0>         0.0573
      8 C6         -0.4005   -3.1312    1.3361 C.2       1 <0>         0.0236
      9 C7          1.0286   -2.9740    1.0622 C.2       1 <0>        -0.0883
     10 C8          1.5077   -1.9862    0.3252 C.2       1 <0>        -0.0923
     11 C9          2.9856   -1.8682    0.0436 C.3       1 <0>        -0.0774
     12 C10         3.1831   -1.8155   -1.4764 C.3       1 <0>        -0.1170
     13 C11         2.3107   -0.7058   -2.0652 C.3       1 <0>        -0.1183
     14 C12         0.8333   -1.0058   -1.8043 C.3       1 <0>        -0.0883
     15 H1          0.5874   -1.9917   -2.1988 H         1 <0>         0.0951
     16 C13        -0.0315    0.0506   -2.4950 C.3       1 <0>         0.2255
     17 C14         0.4539    0.2466   -3.9327 C.3       1 <0>        -0.1333
     18 C15        -1.4677   -0.4057   -2.5075 C.2       1 <0>         0.0185
     19 N3         -1.9649   -1.5145   -2.9960 N.2       1 <0>        -0.5000
     20 C16        -3.2554   -1.7747   -2.9309 C.2       1 <0>         0.0357
     21 C17        -4.0419   -0.8418   -2.3355 C.2       1 <0>        -0.2165
     22 S1         -2.8207    0.3826   -1.8905 S.3       1 <0>         0.0949
     23 O1          0.0693    1.2869   -1.7855 O.3       1 <0>        -0.5401
     24 C18        -0.5127   -5.1616    2.8914 C.ar      1 <0>        -0.0076
     25 C19         0.6203   -5.8288    2.4255 C.ar      1 <0>        -0.0823
     26 C20         1.1621   -6.8609    3.1631 C.ar      1 <0>        -0.1508
     27 C21         0.5826   -7.2354    4.3647 C.ar      1 <0>         0.0972
     28 C22        -0.5432   -6.5761    4.8316 C.ar      1 <0>        -0.1514
     29 C23        -1.0887   -5.5383    4.1047 C.ar      1 <0>        -0.0649
     30 F1          1.1167   -8.2471    5.0833 F         1 <0>        -0.1395
     31 H2          1.4836    0.9541   -0.5583 H         1 <0>         0.1098
     32 H3          0.0433    0.9581    0.4874 H         1 <0>         0.0560
     33 H4          1.5842    0.3088    1.0975 H         1 <0>         0.0658
     34 H5         -1.3359   -0.2587    0.3633 H         1 <0>         0.0834
     35 H6         -1.4111   -1.3196   -1.0385 H         1 <0>         0.1055
     36 H7         -3.5014   -2.2589    0.9679 H         1 <0>         0.2040
     37 H8          1.7206   -3.6807    1.4959 H         1 <0>         0.1341
     38 H9          3.3743   -0.9561    0.4965 H         1 <0>         0.0817
     39 H10         3.5077   -2.7334    0.4522 H         1 <0>         0.0782
     40 H11         4.2303   -1.6117   -1.7000 H         1 <0>         0.0746
     41 H12         2.8978   -2.7725   -1.9133 H         1 <0>         0.0662
     42 H13         2.5739    0.2451   -1.6021 H         1 <0>         0.0810
     43 H14         2.4825   -0.6425   -3.1397 H         1 <0>         0.0780
     44 H15         0.6329   -0.7258   -4.3914 H         1 <0>         0.0825
     45 H16        -0.3049    0.7830   -4.5024 H         1 <0>         0.0651
     46 H17         1.3795    0.8222   -3.9284 H         1 <0>         0.0852
     47 H18        -3.6684   -2.6879   -3.3332 H         1 <0>         0.1791
     48 H19        -5.1096   -0.8420   -2.1727 H         1 <0>         0.2036
     49 H20        -0.4268    1.3058   -0.9557 H         1 <0>         0.3781
     50 H21         1.0722   -5.5381    1.4887 H         1 <0>         0.1333
     51 H22         2.0393   -7.3781    2.8033 H         1 <0>         0.1379
     52 H23        -0.9916   -6.8721    5.7685 H         1 <0>         0.1379
     53 H24        -1.9633   -5.0219    4.4718 H         1 <0>         0.1370
@<TRIPOS>BOND
     1    1    2 1
     2    1   31 1
     3    1   32 1
     4    1   33 1
     5    2   10 1
     6    2   14 1
     7    2    3 1
     8    3    4 1
     9    3   34 1
    10    3   35 1
    11    4    8 1
    12    4    5 1
    13    5    6 2
    14    5   36 1
    15    6    7 1
    16    7    8 2
    17    7   24 1
    18    8    9 1
    19    9   10 2
    20    9   37 1
    21   10   11 1
    22   11   12 1
    23   11   38 1
    24   11   39 1
    25   12   13 1
    26   12   40 1
    27   12   41 1
    28   13   14 1
    29   13   42 1
    30   13   43 1
    31   14   15 1
    32   14   16 1
    33   16   17 1
    34   16   18 1
    35   16   23 1
    36   17   44 1
    37   17   45 1
    38   17   46 1
    39   18   22 1
    40   18   19 2
    41   19   20 1
    42   20   21 2
    43   20   47 1
    44   21   22 1
    45   21   48 1
    46   23   49 1
    47   24   29 ar
    48   24   25 ar
    49   25   26 ar
    50   25   50 1
    51   26   27 ar
    52   26   51 1
    53   27   28 ar
    54   27   30 1
    55   28   29 ar
    56   28   52 1
    57   29   53 1
@<TRIPOS>MOLECULE
CHEMBL514630
   45    49     0     0     0
SMALL
USER_CHARGES

@<TRIPOS>ATOM
      1 C1         -0.0187    1.5258    0.0104 C.3       1 <0>        -0.1350
      2 C2          0.0021   -0.0041    0.0020 C.3       1 <0>         0.0237
      3 C3         -1.4106   -0.6295    0.0211 C.3       1 <0>        -0.1018
      4 C4         -1.3418   -2.1550    0.0237 C.3       1 <0>        -0.0584
      5 C5          0.1217   -2.6505    0.0065 C.3       1 <0>         0.0211
      6 C6          0.7838   -1.9905    1.2057 C.ar      1 <0>        -0.0757
      7 C7          0.7210   -0.5976    1.2033 C.ar      1 <0>        -0.0835
      8 C8          1.2589    0.1270    2.2276 C.ar      1 <0>        -0.1104
      9 C9          1.8903   -0.5473    3.2652 C.ar      1 <0>        -0.1199
     10 C10         1.9708   -1.9272    3.2572 C.ar      1 <0>        -0.1199
     11 C11         1.4004   -2.6595    2.2236 C.ar      1 <0>        -0.0767
     12 C12         0.7549   -1.9957   -1.2108 C.ar      1 <0>        -0.0795
     13 C13         0.7079   -0.5844   -1.2132 C.ar      1 <0>        -0.0729
     14 C14         1.2349    0.1517   -2.2351 C.ar      1 <0>        -0.1043
     15 C15         1.8550   -0.5109   -3.2869 C.ar      1 <0>        -0.1180
     16 C16         1.9348   -1.8908   -3.2955 C.ar      1 <0>        -0.1208
     17 C17         1.3476   -2.6693   -2.2399 C.ar      1 <0>        -0.1036
     18 C18        -2.0669   -2.6914   -1.2122 C.3       1 <0>        -0.1468
     19 C19        -2.0253   -2.6778    1.2608 C.2       1 <0>         0.5165
     20 O1         -1.4037   -3.3440    2.0614 O.2       1 <0>        -0.4452
     21 N1         -3.3272   -2.4052    1.4776 N.am      1 <0>        -0.6157
     22 C20        -3.9580   -2.8877    2.6193 C.2       1 <0>         0.2439
     23 N2         -3.4603   -3.6152    3.5997 N.2       1 <0>        -0.3047
     24 N3         -4.1642   -3.9822    4.5827 N.2       1 <0>        -0.2315
     25 C21        -5.4329   -3.6281    4.6306 C.2       1 <0>         0.0066
     26 S1         -5.5571   -2.6888    3.1150 S.3       1 <0>         0.0700
     27 H1          1.0039    1.9031    0.0027 H         1 <0>         0.0681
     28 H2         -0.5459    1.8868   -0.8726 H         1 <0>         0.0671
     29 H3         -0.5289    1.8773    0.9072 H         1 <0>         0.0652
     30 H4         -1.9372   -0.2945    0.9148 H         1 <0>         0.0730
     31 H5         -1.9595   -0.2984   -0.8605 H         1 <0>         0.0874
     32 H6          0.2053   -3.7373    0.0161 H         1 <0>         0.1105
     33 H7          1.1952    1.2051    2.2311 H         1 <0>         0.1236
     34 H8          2.3214    0.0103    4.0835 H         1 <0>         0.1203
     35 H9          2.4646   -2.4404    4.0691 H         1 <0>         0.1210
     36 H10         1.4470   -3.7385    2.2234 H         1 <0>         0.1242
     37 H11         1.1705    1.2298   -2.2262 H         1 <0>         0.1270
     38 H12         2.2773    0.0559   -4.1035 H         1 <0>         0.1234
     39 H13         2.4185   -2.3950   -4.1190 H         1 <0>         0.1229
     40 H14         1.3949   -3.7483   -2.2356 H         1 <0>         0.1297
     41 H15        -1.5874   -2.3044   -2.1113 H         1 <0>         0.0815
     42 H16        -2.0212   -3.7804   -1.2161 H         1 <0>         0.0683
     43 H17        -3.1087   -2.3715   -1.1895 H         1 <0>         0.0629
     44 H18        -3.8243   -1.8725    0.8373 H         1 <0>         0.4266
     45 H19        -6.1839   -3.8414    5.3769 H         1 <0>         0.2400
@<TRIPOS>BOND
     1    1    2 1
     2    1   27 1
     3    1   28 1
     4    1   29 1
     5    2    7 1
     6    2   13 1
     7    2    3 1
     8    3    4 1
     9    3   30 1
    10    3   31 1
    11    4    5 1
    12    4   18 1
    13    4   19 1
    14    5    6 1
    15    5   12 1
    16    5   32 1
    17    6   11 ar
    18    6    7 ar
    19    7    8 ar
    20    8    9 ar
    21    8   33 1
    22    9   10 ar
    23    9   34 1
    24   10   11 ar
    25   10   35 1
    26   11   36 1
    27   12   17 ar
    28   12   13 ar
    29   13   14 ar
    30   14   15 ar
    31   14   37 1
    32   15   16 ar
    33   15   38 1
    34   16   17 ar
    35   16   39 1
    36   17   40 1
    37   18   41 1
    38   18   42 1
    39   18   43 1
    40   19   20 2
    41   19   21 am
    42   21   22 1
    43   21   44 1
    44   22   26 1
    45   22   23 2
    46   23   24 1
    47   24   25 2
    48   25   26 1
    49   25   45 1
@<TRIPOS>MOLECULE
CHEMBL514630__1
   45    49     0     0     0
SMALL
USER_CHARGES

@<TRIPOS>ATOM
      1 C1         -0.0187    1.5258    0.0104 C.3       1 <0>        -0.1350
      2 C2          0.0021   -0.0041    0.0020 C.3       1 <0>         0.0237
      3 C3         -1.4106   -0.6295    0.0211 C.3       1 <0>        -0.1018
      4 C4         -1.3418   -2.1550    0.0237 C.3       1 <0>        -0.0584
      5 C5          0.1217   -2.6505    0.0065 C.3       1 <0>         0.0216
      6 C6          0.7838   -1.9905    1.2057 C.ar      1 <0>        -0.0793
      7 C7          0.7210   -0.5976    1.2033 C.ar      1 <0>        -0.0722
      8 C8          1.2589    0.1270    2.2276 C.ar      1 <0>        -0.1055
      9 C9          1.8903   -0.5473    3.2652 C.ar      1 <0>        -0.1179
     10 C10         1.9708   -1.9272    3.2572 C.ar      1 <0>        -0.1196
     11 C11         1.4004   -2.6595    2.2236 C.ar      1 <0>        -0.1023
     12 C12         0.7549   -1.9957   -1.2108 C.ar      1 <0>        -0.0780
     13 C13         0.7079   -0.5844   -1.2132 C.ar      1 <0>        -0.0832
     14 C14         1.2349    0.1517   -2.2351 C.ar      1 <0>        -0.1092
     15 C15         1.8550   -0.5109   -3.2869 C.ar      1 <0>        -0.1204
     16 C16         1.9348   -1.8908   -3.2955 C.ar      1 <0>        -0.1212
     17 C17         1.3476   -2.6693   -2.2399 C.ar      1 <0>        -0.0765
     18 C18        -2.0357   -2.6858    1.2797 C.3       1 <0>        -0.1469
     19 C19        -2.0560   -2.6833   -1.1936 C.2       1 <0>         0.5167
     20 O1         -1.4547   -3.3531   -2.0065 O.2       1 <0>        -0.4451
     21 N1         -3.3630   -2.4116   -1.3789 N.am      1 <0>        -0.6157
     22 C20        -4.0222   -2.8991   -2.5022 C.2       1 <0>         0.2438
     23 N2         -3.5519   -3.6408   -3.4857 N.2       1 <0>        -0.3047
     24 N3         -4.2798   -4.0106   -4.4500 N.2       1 <0>        -0.2315
     25 C21        -5.5459   -3.6451   -4.4747 C.2       1 <0>         0.0065
     26 S1         -5.6332   -2.7024   -2.9586 S.3       1 <0>         0.0700
     27 H1          1.0039    1.9031    0.0027 H         1 <0>         0.0681
     28 H2         -0.5459    1.8868   -0.8726 H         1 <0>         0.0655
     29 H3         -0.5289    1.8773    0.9072 H         1 <0>         0.0669
     30 H4         -1.9372   -0.2945    0.9148 H         1 <0>         0.0876
     31 H5         -1.9595   -0.2984   -0.8605 H         1 <0>         0.0728
     32 H6          0.2053   -3.7373    0.0161 H         1 <0>         0.1102
     33 H7          1.1952    1.2051    2.2311 H         1 <0>         0.1264
     34 H8          2.3214    0.0103    4.0835 H         1 <0>         0.1225
     35 H9          2.4646   -2.4404    4.0691 H         1 <0>         0.1228
     36 H10         1.4470   -3.7385    2.2234 H         1 <0>         0.1256
     37 H11         1.1705    1.2298   -2.2262 H         1 <0>         0.1243
     38 H12         2.2773    0.0559   -4.1035 H         1 <0>         0.1212
     39 H13         2.4185   -2.3950   -4.1190 H         1 <0>         0.1211
     40 H14         1.3949   -3.7483   -2.2356 H         1 <0>         0.1282
     41 H15        -3.0777   -2.3660    1.2818 H         1 <0>         0.0629
     42 H16        -1.9899   -3.7748    1.2874 H         1 <0>         0.0683
     43 H17        -1.5339   -2.2948    2.1648 H         1 <0>         0.0812
     44 H18        -3.8440   -1.8760   -0.7287 H         1 <0>         0.4266
     45 H19        -6.3145   -3.8585   -5.2029 H         1 <0>         0.2400
@<TRIPOS>BOND
     1    1    2 1
     2    1   27 1
     3    1   28 1
     4    1   29 1
     5    2    7 1
     6    2   13 1
     7    2    3 1
     8    3    4 1
     9    3   30 1
    10    3   31 1
    11    4    5 1
    12    4   18 1
    13    4   19 1
    14    5    6 1
    15    5   12 1
    16    5   32 1
    17    6   11 ar
    18    6    7 ar
    19    7    8 ar
    20    8    9 ar
    21    8   33 1
    22    9   10 ar
    23    9   34 1
    24   10   11 ar
    25   10   35 1
    26   11   36 1
    27   12   17 ar
    28   12   13 ar
    29   13   14 ar
    30   14   15 ar
    31   14   37 1
    32   15   16 ar
    33   15   38 1
    34   16   17 ar
    35   16   39 1
    36   17   40 1
    37   18   41 1
    38   18   42 1
    39   18   43 1
    40   19   20 2
    41   19   21 am
    42   21   22 1
    43   21   44 1
    44   22   26 1
    45   22   23 2
    46   23   24 1
    47   24   25 2
    48   25   26 1
    49   25   45 1
@<TRIPOS>MOLECULE
CHEMBL271853
   65    70     0     0     0
SMALL
USER_CHARGES

@<TRIPOS>ATOM
      1 C1         -0.0167    1.3782    0.0096 C.ar      1 <0>        -0.0828
      2 C2          1.1703    2.0860    0.0021 C.ar      1 <0>        -0.1569
      3 C3          2.3786    1.4101   -0.0131 C.ar      1 <0>         0.0989
      4 C4          2.3962    0.0256   -0.0207 C.ar      1 <0>        -0.1475
      5 C5          1.2079   -0.6800   -0.0132 C.ar      1 <0>        -0.0654
      6 C6          0.0021   -0.0041    0.0020 C.ar      1 <0>        -0.0855
      7 C7         -1.2930   -0.7747    0.0103 C.3       1 <0>        -0.0699
      8 C8         -1.7450   -1.0277   -1.4294 C.3       1 <0>        -0.0168
      9 C9         -0.7060   -1.9050   -2.1289 C.3       1 <0>        -0.0279
     10 C10         0.4994   -1.0652   -2.4599 C.2       1 <0>        -0.2222
     11 C11         1.8376   -1.3938   -2.5447 C.2       1 <0>         0.0690
     12 N1          2.5125   -0.3153   -2.8768 N.2       1 <0>        -0.2836
     13 N2          1.6151    0.7574   -3.0178 N.pl3     1 <0>        -0.2967
     14 C12         0.3771    0.2888   -2.7503 C.2       1 <0>         0.1259
     15 C13        -0.9372    0.9493   -2.7125 C.2       1 <0>        -0.1042
     16 C14        -1.9453    0.2958   -2.1183 C.2       1 <0>        -0.0669
     17 C15        -3.3309    0.9073   -2.1140 C.3       1 <0>        -0.0914
     18 C16        -4.0242    0.5042   -0.8065 C.3       1 <0>         0.1251
     19 N3         -4.0925   -0.9587   -0.7317 N.pl3     1 <0>        -1.0053
     20 C17        -3.0819   -1.7786   -1.4057 C.3       1 <0>         0.1259
     21 S1         -5.3148   -1.6861    0.1165 S.o2      1 <0>         2.7808
     22 O1         -4.8421   -2.9744    0.4857 O.2       1 <0>        -0.9666
     23 O2         -5.7659   -0.7372    1.0731 O.2       1 <0>        -0.9668
     24 N4         -6.5678   -1.9263   -0.9392 N.pl3     1 <0>        -1.0090
     25 C18        -7.6056   -0.9005   -1.1291 C.3       1 <0>         0.0859
     26 C19        -7.7640   -0.6455   -2.6324 C.3       1 <0>         0.0487
     27 O3         -7.9729   -1.8913   -3.3017 O.3       1 <0>        -0.3745
     28 C20        -6.8799   -2.8061   -3.1902 C.3       1 <0>         0.0486
     29 C21        -6.6731   -3.1694   -1.7197 C.3       1 <0>         0.0862
     30 C22         1.9448    2.0725   -3.3717 C.ar      1 <0>         0.1486
     31 C23         1.0718    2.8232   -4.1480 C.ar      1 <0>        -0.1047
     32 C24         1.3983    4.1193   -4.4954 C.ar      1 <0>        -0.1325
     33 C25         2.5955    4.6705   -4.0700 C.ar      1 <0>         0.0991
     34 C26         3.4677    3.9233   -3.2961 C.ar      1 <0>        -0.1320
     35 C27         3.1423    2.6288   -2.9419 C.ar      1 <0>        -0.0772
     36 F1          2.9131    5.9386   -4.4109 F         1 <0>        -0.1335
     37 F2          3.5396    2.1009   -0.0209 F         1 <0>        -0.1428
     38 H1         -0.9592    1.9052    0.0260 H         1 <0>         0.1234
     39 H2          1.1554    3.1659    0.0077 H         1 <0>         0.1257
     40 H3          3.3381   -0.5027   -0.0329 H         1 <0>         0.1291
     41 H4          1.2213   -1.7599   -0.0195 H         1 <0>         0.1283
     42 H5         -1.1453   -1.7280    0.5176 H         1 <0>         0.0837
     43 H6         -2.0553   -0.1984    0.5345 H         1 <0>         0.0804
     44 H7         -0.4123   -2.7204   -1.4679 H         1 <0>         0.0854
     45 H8         -1.1304   -2.3119   -3.0467 H         1 <0>         0.0771
     46 H9          2.2593   -2.3723   -2.3684 H         1 <0>         0.1846
     47 H10        -1.0884    1.9220   -3.1567 H         1 <0>         0.1304
     48 H11        -3.2544    1.9931   -2.1707 H         1 <0>         0.0918
     49 H12        -3.9014    0.5328   -2.9640 H         1 <0>         0.0900
     50 H13        -3.4548    0.8863    0.0408 H         1 <0>         0.0754
     51 H14        -5.0325    0.9178   -0.7860 H         1 <0>         0.0812
     52 H15        -3.4020   -1.9824   -2.4275 H         1 <0>         0.0706
     53 H16        -2.9605   -2.7195   -0.8689 H         1 <0>         0.0987
     54 H17        -8.5502   -1.2529   -0.7150 H         1 <0>         0.0836
     55 H18        -7.3064    0.0212   -0.6299 H         1 <0>         0.0968
     56 H19        -8.6201    0.0073   -2.8027 H         1 <0>         0.1073
     57 H20        -6.8614   -0.1716   -3.0184 H         1 <0>         0.0560
     58 H21        -7.0999   -3.7077   -3.7618 H         1 <0>         0.1078
     59 H22        -5.9741   -2.3401   -3.5782 H         1 <0>         0.0557
     60 H23        -5.7567   -3.7495   -1.6114 H         1 <0>         0.0981
     61 H24        -7.5223   -3.7541   -1.3660 H         1 <0>         0.0831
     62 H25         0.1383    2.3936   -4.4802 H         1 <0>         0.1396
     63 H26         0.7198    4.7033   -5.0994 H         1 <0>         0.1459
     64 H27         4.4010    4.3548   -2.9657 H         1 <0>         0.1455
     65 H28         3.8205    2.0481   -2.3343 H         1 <0>         0.1447
@<TRIPOS>BOND
     1    1    6 ar
     2    1    2 ar
     3    1   38 1
     4    2    3 ar
     5    2   39 1
     6    3    4 ar
     7    3   37 1
     8    4    5 ar
     9    4   40 1
    10    5    6 ar
    11    5   41 1
    12    6    7 1
    13    7    8 1
    14    7   42 1
    15    7   43 1
    16    8   16 1
    17    8   20 1
    18    8    9 1
    19    9   10 1
    20    9   44 1
    21    9   45 1
    22   10   14 2
    23   10   11 1
    24   11   12 2
    25   11   46 1
    26   12   13 1
    27   13   14 1
    28   13   30 1
    29   14   15 1
    30   15   16 2
    31   15   47 1
    32   16   17 1
    33   17   18 1
    34   17   48 1
    35   17   49 1
    36   18   19 1
    37   18   50 1
    38   18   51 1
    39   19   20 1
    40   19   21 1
    41   20   52 1
    42   20   53 1
    43   21   22 2
    44   21   23 2
    45   21   24 1
    46   24   29 1
    47   24   25 1
    48   25   26 1
    49   25   54 1
    50   25   55 1
    51   26   27 1
    52   26   56 1
    53   26   57 1
    54   27   28 1
    55   28   29 1
    56   28   58 1
    57   28   59 1
    58   29   60 1
    59   29   61 1
    60   30   35 ar
    61   30   31 ar
    62   31   32 ar
    63   31   62 1
    64   32   33 ar
    65   32   63 1
    66   33   34 ar
    67   33   36 1
    68   34   35 ar
    69   34   64 1
    70   35   65 1
@<TRIPOS>MOLECULE
CHEMBL271853__1
   65    70     0     0     0
SMALL
USER_CHARGES

@<TRIPOS>ATOM
      1 C1         -0.0167    1.3782    0.0096 C.ar      1 <0>        -0.0633
      2 C2          1.1703    2.0860    0.0021 C.ar      1 <0>        -0.1458
      3 C3          2.3786    1.4101   -0.0131 C.ar      1 <0>         0.1045
      4 C4          2.3962    0.0256   -0.0207 C.ar      1 <0>        -0.1623
      5 C5          1.2079   -0.6800   -0.0132 C.ar      1 <0>        -0.0874
      6 C6          0.0021   -0.0041    0.0020 C.ar      1 <0>        -0.0863
      7 C7         -1.2930   -0.7747    0.0103 C.3       1 <0>        -0.0667
      8 C8         -1.7450   -1.0277   -1.4294 C.3       1 <0>        -0.0210
      9 C9         -2.0269    0.3152   -2.1043 C.3       1 <0>        -0.0283
     10 C10        -0.7170    0.9793   -2.4372 C.2       1 <0>        -0.2227
     11 C11        -0.3682    2.3135   -2.5041 C.2       1 <0>         0.0686
     12 N1          0.8984    2.3975   -2.8474 N.2       1 <0>        -0.2833
     13 N2          1.4115    1.0995   -3.0144 N.pl3     1 <0>        -0.2962
     14 C12         0.4116    0.2307   -2.7510 C.2       1 <0>         0.1263
     15 C13         0.3654   -1.2399   -2.7363 C.2       1 <0>        -0.1051
     16 C14        -0.6843   -1.8237   -2.1417 C.2       1 <0>        -0.0662
     17 C15        -0.8080   -3.3331   -2.1610 C.3       1 <0>        -0.0903
     18 C16        -1.4803   -3.7714   -0.8538 C.3       1 <0>         0.1156
     19 N3         -2.7978   -3.1349   -0.7558 N.pl3     1 <0>        -1.0052
     20 C17        -3.0426   -1.8447   -1.4065 C.3       1 <0>         0.1358
     21 S1         -4.0119   -3.8758    0.0923 S.o2      1 <0>         2.7810
     22 O1         -5.2354   -3.3745   -0.4284 O.2       1 <0>        -0.9665
     23 O2         -3.7046   -5.2630    0.1134 O.2       1 <0>        -0.9678
     24 N4         -3.9107   -3.3447    1.6575 N.pl3     1 <0>        -1.0083
     25 C18        -3.0841   -4.0547    2.6464 C.3       1 <0>         0.0866
     26 C19        -2.1781   -3.0326    3.3425 C.3       1 <0>         0.0486
     27 O3         -2.9774   -1.9562    3.8388 O.3       1 <0>        -0.3725
     28 C20        -3.6623   -1.2191    2.8231 C.3       1 <0>         0.0448
     29 C21        -4.6397   -2.1451    2.0990 C.3       1 <0>         0.0861
     30 C22         2.7210    0.7677   -3.3867 C.ar      1 <0>         0.1468
     31 C23         3.3250   -0.3688   -2.8656 C.ar      1 <0>        -0.1026
     32 C24         4.6155   -0.6944   -3.2341 C.ar      1 <0>        -0.1339
     33 C25         5.3071    0.1118   -4.1227 C.ar      1 <0>         0.1007
     34 C26         4.7066    1.2460   -4.6432 C.ar      1 <0>        -0.1335
     35 C27         3.4143    1.5719   -4.2816 C.ar      1 <0>        -0.0801
     36 F1          6.5695   -0.2084   -4.4820 F         1 <0>        -0.1333
     37 F2          3.5396    2.1009   -0.0209 F         1 <0>        -0.1415
     38 H1         -0.9592    1.9052    0.0260 H         1 <0>         0.1275
     39 H2          1.1554    3.1659    0.0077 H         1 <0>         0.1288
     40 H3          3.3381   -0.5027   -0.0329 H         1 <0>         0.1275
     41 H4          1.2213   -1.7599   -0.0195 H         1 <0>         0.1239
     42 H5         -1.1453   -1.7280    0.5176 H         1 <0>         0.0794
     43 H6         -2.0553   -0.1984    0.5345 H         1 <0>         0.0799
     44 H7         -2.5960    0.1514   -3.0194 H         1 <0>         0.0785
     45 H8         -2.5969    0.9515   -1.4272 H         1 <0>         0.0842
     46 H9         -1.0252    3.1478   -2.3078 H         1 <0>         0.1843
     47 H10         1.1435   -1.8295   -3.1982 H         1 <0>         0.1302
     48 H11        -1.4176   -3.6419   -3.0102 H         1 <0>         0.0936
     49 H12         0.1821   -3.7829   -2.2346 H         1 <0>         0.0926
     50 H13        -1.5978   -4.8550   -0.8498 H         1 <0>         0.0959
     51 H14        -0.8646   -3.4672   -0.0074 H         1 <0>         0.0675
     52 H15        -3.8062   -1.2980   -0.8532 H         1 <0>         0.0846
     53 H16        -3.3844   -2.0121   -2.4279 H         1 <0>         0.0784
     54 H17        -3.7264   -4.5376    3.3828 H         1 <0>         0.0836
     55 H18        -2.4731   -4.8044    2.1436 H         1 <0>         0.0971
     56 H19        -1.6581   -3.5123    4.1717 H         1 <0>         0.1066
     57 H20        -1.4498   -2.6465    2.6294 H         1 <0>         0.0556
     58 H21        -4.2099   -0.3941    3.2786 H         1 <0>         0.1070
     59 H22        -2.9393   -0.8264    2.1081 H         1 <0>         0.0584
     60 H23        -5.0585   -1.6309    1.2340 H         1 <0>         0.0971
     61 H24        -5.4413   -2.4324    2.7794 H         1 <0>         0.0833
     62 H25         2.7861   -0.9976   -2.1723 H         1 <0>         0.1439
     63 H26         5.0858   -1.5781   -2.8287 H         1 <0>         0.1458
     64 H27         5.2478    1.8736   -5.3357 H         1 <0>         0.1460
     65 H28         2.9446    2.4538   -4.6914 H         1 <0>         0.1437
@<TRIPOS>BOND
     1    1    6 ar
     2    1    2 ar
     3    1   38 1
     4    2    3 ar
     5    2   39 1
     6    3    4 ar
     7    3   37 1
     8    4    5 ar
     9    4   40 1
    10    5    6 ar
    11    5   41 1
    12    6    7 1
    13    7    8 1
    14    7   42 1
    15    7   43 1
    16    8   16 1
    17    8   20 1
    18    8    9 1
    19    9   10 1
    20    9   44 1
    21    9   45 1
    22   10   14 2
    23   10   11 1
    24   11   12 2
    25   11   46 1
    26   12   13 1
    27   13   14 1
    28   13   30 1
    29   14   15 1
    30   15   16 2
    31   15   47 1
    32   16   17 1
    33   17   18 1
    34   17   48 1
    35   17   49 1
    36   18   19 1
    37   18   50 1
    38   18   51 1
    39   19   20 1
    40   19   21 1
    41   20   52 1
    42   20   53 1
    43   21   22 2
    44   21   23 2
    45   21   24 1
    46   24   29 1
    47   24   25 1
    48   25   26 1
    49   25   54 1
    50   25   55 1
    51   26   27 1
    52   26   56 1
    53   26   57 1
    54   27   28 1
    55   28   29 1
    56   28   58 1
    57   28   59 1
    58   29   60 1
    59   29   61 1
    60   30   35 ar
    61   30   31 ar
    62   31   32 ar
    63   31   62 1
    64   32   33 ar
    65   32   63 1
    66   33   34 ar
    67   33   36 1
    68   34   35 ar
    69   34   64 1
    70   35   65 1
@<TRIPOS>MOLECULE
CHEMBL569100
   61    65     0     0     0
SMALL
USER_CHARGES

@<TRIPOS>ATOM
      1 C1          1.7139    0.8061   -0.2958 C.3       1 <0>        -0.1735
      2 C2          1.3724   -0.6624   -0.5560 C.3       1 <0>        -0.0395
      3 C3          0.0621   -0.9849    0.1790 C.3       1 <0>         0.0445
      4 N1          0.1045   -2.0312    1.2087 N.pl3     1 <0>        -0.4061
      5 C4         -0.8365   -2.5200    2.0440 C.cat     1 <0>         0.2889
      6 N2         -0.3105   -3.4469    2.7960 N.pl3     1 <0>        -0.4644
      7 C5          0.9883   -3.6017    2.4792 C.2       1 <0>         0.0857
      8 C6          1.2746   -2.7061    1.4588 C.2       1 <0>         0.1143
      9 C7          2.5054   -2.4385    0.7134 C.2       1 <0>        -0.1418
     10 C8          2.5876   -1.4960   -0.2104 C.2       1 <0>        -0.0184
     11 C9          3.8668   -1.2632   -0.9764 C.3       1 <0>        -0.0900
     12 C10         3.5549   -1.3605   -2.4749 C.3       1 <0>        -0.1204
     13 C11         2.4019   -0.4158   -2.8175 C.3       1 <0>        -0.1233
     14 C12         1.1402   -0.8308   -2.0579 C.3       1 <0>        -0.0984
     15 H1          0.9115   -1.8740   -2.2756 H         1 <0>         0.0873
     16 C13        -0.0315    0.0506   -2.4950 C.3       1 <0>         0.1395
     17 C14        -0.1010    0.0857   -4.0230 C.3       1 <0>        -0.1512
     18 C15        -1.3362   -0.5225   -1.9381 C.3       1 <0>        -0.1305
     19 C16        -2.4996    0.0135   -2.7321 C.ar      1 <0>        -0.1012
     20 C17        -3.1154    1.1897   -2.3467 C.ar      1 <0>        -0.0797
     21 C18        -4.1820    1.6825   -3.0743 C.ar      1 <0>        -0.1495
     22 C19        -4.6339    0.9976   -4.1896 C.ar      1 <0>         0.1067
     23 C20        -4.0164   -0.1804   -4.5746 C.ar      1 <0>        -0.1504
     24 C21        -2.9466   -0.6684   -3.8485 C.ar      1 <0>        -0.0834
     25 F1         -5.6768    1.4781   -4.9014 F         1 <0>        -0.1339
     26 O1          0.1577    1.3763   -1.9962 O.3       1 <0>        -0.5432
     27 C22         1.9368   -4.5518    3.1045 C.ar      1 <0>        -0.0760
     28 C23         3.2145   -4.1271    3.4692 C.ar      1 <0>        -0.0508
     29 C24         4.0942   -5.0160    4.0513 C.ar      1 <0>        -0.1475
     30 C25         3.7107   -6.3289    4.2735 C.ar      1 <0>         0.1373
     31 C26         2.4428   -6.7558    3.9126 C.ar      1 <0>        -0.1475
     32 C27         1.5534   -5.8729    3.3360 C.ar      1 <0>        -0.0637
     33 F2          4.5761   -7.1957    4.8435 F         1 <0>        -0.1226
     34 H2          1.9115    1.3066   -1.2438 H         1 <0>         0.1201
     35 H3          0.8751    1.2913    0.2033 H         1 <0>         0.0638
     36 H4          2.5984    0.8666    0.3383 H         1 <0>         0.0657
     37 H5         -0.2920   -0.0674    0.6490 H         1 <0>         0.1165
     38 H6         -0.6758   -1.2798   -0.5671 H         1 <0>         0.1589
     39 H7         -1.8654   -2.1939    2.0837 H         1 <0>         0.2625
     40 H8          3.3865   -3.0200    0.9413 H         1 <0>         0.1529
     41 H9          4.2579   -0.2722   -0.7460 H         1 <0>         0.0950
     42 H10         4.6013   -2.0211   -0.7040 H         1 <0>         0.0875
     43 H11         4.4378   -1.0793   -3.0489 H         1 <0>         0.0824
     44 H12         3.2717   -2.3838   -2.7214 H         1 <0>         0.0684
     45 H13         2.6735    0.6022   -2.5385 H         1 <0>         0.0844
     46 H14         2.2081   -0.4556   -3.8894 H         1 <0>         0.0845
     47 H15        -0.1842   -0.9313   -4.4064 H         1 <0>         0.0718
     48 H16        -0.9714    0.6635   -4.3339 H         1 <0>         0.0752
     49 H17         0.8029    0.5498   -4.4173 H         1 <0>         0.0744
     50 H18        -1.3162   -1.6098   -2.0119 H         1 <0>         0.0920
     51 H19        -1.4444   -0.2311   -0.8934 H         1 <0>         0.0886
     52 H20        -2.7629    1.7236   -1.4766 H         1 <0>         0.1294
     53 H21        -4.6631    2.6012   -2.7729 H         1 <0>         0.1389
     54 H22        -4.3682   -0.7156   -5.4441 H         1 <0>         0.1393
     55 H23        -2.4619   -1.5849   -4.1512 H         1 <0>         0.1318
     56 H24        -0.0854    1.4852   -1.0666 H         1 <0>         0.3706
     57 H25         3.5145   -3.1043    3.2958 H         1 <0>         0.1428
     58 H26         5.0837   -4.6882    4.3340 H         1 <0>         0.1520
     59 H27         2.1489   -7.7802    4.0872 H         1 <0>         0.1508
     60 H28         0.5637   -6.2053    3.0595 H         1 <0>         0.1371
     61 H29        -0.7830   -3.9477    3.4792 H         1 <0>         0.4651
@<TRIPOS>BOND
     1    1    2 1
     2    1   34 1
     3    1   35 1
     4    1   36 1
     5    2   10 1
     6    2   14 1
     7    2    3 1
     8    3    4 1
     9    3   37 1
    10    3   38 1
    11    4    8 1
    12    4    5 1
    13    5    6 2
    14    5   39 1
    15    6    7 1
    16    6   61 1
    17    7    8 2
    18    7   27 1
    19    8    9 1
    20    9   10 2
    21    9   40 1
    22   10   11 1
    23   11   12 1
    24   11   41 1
    25   11   42 1
    26   12   13 1
    27   12   43 1
    28   12   44 1
    29   13   14 1
    30   13   45 1
    31   13   46 1
    32   14   15 1
    33   14   16 1
    34   16   17 1
    35   16   18 1
    36   16   26 1
    37   17   47 1
    38   17   48 1
    39   17   49 1
    40   18   19 1
    41   18   50 1
    42   18   51 1
    43   19   24 ar
    44   19   20 ar
    45   20   21 ar
    46   20   52 1
    47   21   22 ar
    48   21   53 1
    49   22   23 ar
    50   22   25 1
    51   23   24 ar
    52   23   54 1
    53   24   55 1
    54   26   56 1
    55   27   32 ar
    56   27   28 ar
    57   28   29 ar
    58   28   57 1
    59   29   30 ar
    60   29   58 1
    61   30   31 ar
    62   30   33 1
    63   31   32 ar
    64   31   59 1
    65   32   60 1
@<TRIPOS>MOLECULE
CHEMBL569100__1
   60    64     0     0     0
SMALL
USER_CHARGES

@<TRIPOS>ATOM
      1 C1          1.7139    0.8061   -0.2958 C.3       1 <0>        -0.1672
      2 C2          1.3724   -0.6624   -0.5560 C.3       1 <0>        -0.0242
      3 C3          0.0621   -0.9849    0.1790 C.3       1 <0>         0.0587
      4 N1          0.1045   -2.0312    1.2087 N.pl3     1 <0>        -0.4495
      5 C4         -0.8365   -2.5200    2.0440 C.2       1 <0>         0.1979
      6 N2         -0.3105   -3.4469    2.7960 N.2       1 <0>        -0.4714
      7 C5          0.9883   -3.6017    2.4792 C.2       1 <0>         0.0559
      8 C6          1.2746   -2.7061    1.4588 C.2       1 <0>         0.0238
      9 C7          2.5054   -2.4385    0.7134 C.2       1 <0>        -0.0916
     10 C8          2.5876   -1.4960   -0.2104 C.2       1 <0>        -0.0915
     11 C9          3.8668   -1.2632   -0.9764 C.3       1 <0>        -0.0777
     12 C10         3.5549   -1.3605   -2.4749 C.3       1 <0>        -0.1179
     13 C11         2.4019   -0.4158   -2.8175 C.3       1 <0>        -0.1179
     14 C12         1.1402   -0.8308   -2.0579 C.3       1 <0>        -0.0961
     15 H1          0.9115   -1.8740   -2.2756 H         1 <0>         0.0816
     16 C13        -0.0315    0.0506   -2.4950 C.3       1 <0>         0.1427
     17 C14        -0.1010    0.0857   -4.0230 C.3       1 <0>        -0.1477
     18 C15        -1.3362   -0.5225   -1.9381 C.3       1 <0>        -0.1318
     19 C16        -2.4996    0.0135   -2.7321 C.ar      1 <0>        -0.0899
     20 C17        -3.1154    1.1897   -2.3467 C.ar      1 <0>        -0.0805
     21 C18        -4.1820    1.6825   -3.0743 C.ar      1 <0>        -0.1499
     22 C19        -4.6339    0.9976   -4.1896 C.ar      1 <0>         0.0976
     23 C20        -4.0164   -0.1804   -4.5746 C.ar      1 <0>        -0.1515
     24 C21        -2.9466   -0.6684   -3.8485 C.ar      1 <0>        -0.0851
     25 F1         -5.6768    1.4781   -4.9014 F         1 <0>        -0.1388
     26 O1          0.1577    1.3763   -1.9962 O.3       1 <0>        -0.5495
     27 C22         1.9368   -4.5518    3.1045 C.ar      1 <0>        -0.0082
     28 C23         2.9360   -5.1503    2.3369 C.ar      1 <0>        -0.0825
     29 C24         3.8169   -6.0347    2.9240 C.ar      1 <0>        -0.1512
     30 C25         3.7102   -6.3292    4.2739 C.ar      1 <0>         0.0972
     31 C26         2.7191   -5.7376    5.0406 C.ar      1 <0>        -0.1515
     32 C27         1.8374   -4.8468    4.4643 C.ar      1 <0>        -0.0651
     33 F2          4.5751   -7.1963    4.8442 F         1 <0>        -0.1395
     34 H2          1.9115    1.3066   -1.2438 H         1 <0>         0.1088
     35 H3          0.8751    1.2913    0.2033 H         1 <0>         0.0558
     36 H4          2.5984    0.8666    0.3383 H         1 <0>         0.0578
     37 H5         -0.2920   -0.0674    0.6490 H         1 <0>         0.0852
     38 H6         -0.6758   -1.2798   -0.5671 H         1 <0>         0.1301
     39 H7         -1.8654   -2.1939    2.0837 H         1 <0>         0.2083
     40 H8          3.3865   -3.0200    0.9413 H         1 <0>         0.1317
     41 H9          4.2579   -0.2722   -0.7460 H         1 <0>         0.0800
     42 H10         4.6013   -2.0211   -0.7040 H         1 <0>         0.0760
     43 H11         4.4378   -1.0793   -3.0489 H         1 <0>         0.0710
     44 H12         3.2717   -2.3838   -2.7214 H         1 <0>         0.0641
     45 H13         2.6735    0.6022   -2.5385 H         1 <0>         0.0789
     46 H14         2.2081   -0.4556   -3.8894 H         1 <0>         0.0742
     47 H15        -0.1842   -0.9313   -4.4064 H         1 <0>         0.0690
     48 H16        -0.9714    0.6635   -4.3339 H         1 <0>         0.0703
     49 H17         0.8029    0.5498   -4.4173 H         1 <0>         0.0705
     50 H18        -1.3162   -1.6098   -2.0119 H         1 <0>         0.0919
     51 H19        -1.4444   -0.2311   -0.8934 H         1 <0>         0.0956
     52 H20        -2.7629    1.7236   -1.4766 H         1 <0>         0.1301
     53 H21        -4.6631    2.6012   -2.7729 H         1 <0>         0.1361
     54 H22        -4.3682   -0.7156   -5.4441 H         1 <0>         0.1363
     55 H23        -2.4619   -1.5849   -4.1512 H         1 <0>         0.1316
     56 H24        -0.0854    1.4852   -1.0666 H         1 <0>         0.3733
     57 H25         3.0195   -4.9220    1.2846 H         1 <0>         0.1333
     58 H26         4.5908   -6.4986    2.3306 H         1 <0>         0.1377
     59 H27         2.6396   -5.9709    6.0921 H         1 <0>         0.1378
     60 H28         1.0683   -4.3826    5.0637 H         1 <0>         0.1370
@<TRIPOS>BOND
     1    1    2 1
     2    1   34 1
     3    1   35 1
     4    1   36 1
     5    2   10 1
     6    2   14 1
     7    2    3 1
     8    3    4 1
     9    3   37 1
    10    3   38 1
    11    4    8 1
    12    4    5 1
    13    5    6 2
    14    5   39 1
    15    6    7 1
    16    7    8 2
    17    7   27 1
    18    8    9 1
    19    9   10 2
    20    9   40 1
    21   10   11 1
    22   11   12 1
    23   11   41 1
    24   11   42 1
    25   12   13 1
    26   12   43 1
    27   12   44 1
    28   13   14 1
    29   13   45 1
    30   13   46 1
    31   14   15 1
    32   14   16 1
    33   16   17 1
    34   16   18 1
    35   16   26 1
    36   17   47 1
    37   17   48 1
    38   17   49 1
    39   18   19 1
    40   18   50 1
    41   18   51 1
    42   19   24 ar
    43   19   20 ar
    44   20   21 ar
    45   20   52 1
    46   21   22 ar
    47   21   53 1
    48   22   23 ar
    49   22   25 1
    50   23   24 ar
    51   23   54 1
    52   24   55 1
    53   26   56 1
    54   27   32 ar
    55   27   28 ar
    56   28   29 ar
    57   28   57 1
    58   29   30 ar
    59   29   58 1
    60   30   31 ar
    61   30   33 1
    62   31   32 ar
    63   31   59 1
    64   32   60 1
@<TRIPOS>MOLECULE
CHEMBL231413
   65    69     0     0     0
SMALL
USER_CHARGES

@<TRIPOS>ATOM
      1 C1          0.1113    1.6111    0.2974 C.3       1 <0>        -0.1530
      2 C2          0.1783    0.0830    0.2624 C.3       1 <0>        -0.0387
      3 C3         -1.2257   -0.4962    0.2593 C.3       1 <0>        -0.1045
      4 C4         -1.9864    0.1513    1.4273 C.3       1 <0>        -0.0082
      5 H1         -2.9472   -0.3486    1.5504 H         1 <0>         0.1016
      6 C5         -1.1978    0.0370    2.7131 C.2       1 <0>        -0.0949
      7 C6         -1.8514   -0.2821    3.8295 C.2       1 <0>        -0.1130
      8 C7         -3.3419   -0.5155    3.8297 C.3       1 <0>        -0.0782
      9 C8         -3.6526   -1.7155    4.7294 C.3       1 <0>        -0.1665
     10 C9         -2.9777   -1.5506    6.0642 C.2       1 <0>         0.3856
     11 O1         -3.5430   -1.9334    7.0689 O.2       1 <0>        -0.4622
     12 C10        -1.7045   -0.9623    6.1709 C.2       1 <0>        -0.2205
     13 C11        -1.1268   -0.3819    5.0986 C.2       1 <0>        -0.0270
     14 C12         0.2702    0.1878    5.1484 C.3       1 <0>         0.0941
     15 O2          0.9175   -0.1495    3.9210 O.3       1 <0>        -0.3644
     16 C13         0.2914    0.2897    2.7265 C.3       1 <0>         0.1371
     17 H2          0.4718    1.3574    2.6023 H         1 <0>         0.0878
     18 C14         0.8916   -0.4446    1.5354 C.3       1 <0>        -0.0802
     19 H3          0.7637   -1.5226    1.6334 H         1 <0>         0.0910
     20 C15         2.3555   -0.0838    1.2474 C.3       1 <0>        -0.1085
     21 C16         2.5139   -0.4327   -0.2563 C.3       1 <0>        -0.1461
     22 C17         1.0947   -0.3716   -0.8712 C.3       1 <0>         0.2435
     23 C18         0.6897   -1.7031   -1.3507 C.1       1 <0>        -0.0404
     24 C19         0.3666   -2.7650   -1.7331 C.1       1 <0>        -0.2811
     25 C20        -0.0384   -4.0965   -2.2125 C.3       1 <0>         0.6015
     26 F1          0.8108   -4.4969   -3.2497 F         1 <0>        -0.1651
     27 F2          0.0440   -5.0158   -1.1611 F         1 <0>        -0.1649
     28 F3         -1.3550   -4.0424   -2.6824 F         1 <0>        -0.1646
     29 O3          1.0606    0.5725   -1.9434 O.3       1 <0>        -0.5267
     30 C21        -2.2215    1.6076    1.1190 C.ar      1 <0>        -0.1193
     31 C22        -2.6191    1.9888   -0.1494 C.ar      1 <0>        -0.0635
     32 C23        -2.8354    3.3225   -0.4354 C.ar      1 <0>        -0.1918
     33 C24        -2.6532    4.2815    0.5529 C.ar      1 <0>         0.2153
     34 C25        -2.2538    3.8951    1.8260 C.ar      1 <0>        -0.1953
     35 C26        -2.0446    2.5592    2.1067 C.ar      1 <0>        -0.0754
     36 N1         -2.8706    5.6313    0.2670 N.pl3     1 <0>        -0.6382
     37 C27        -3.4028    6.0268   -1.0393 C.3       1 <0>         0.0922
     38 C28        -2.5666    6.6514    1.2735 C.3       1 <0>         0.0883
     39 H4          1.1112    2.0220    0.1572 H         1 <0>         0.0533
     40 H5         -0.5418    1.9645   -0.5005 H         1 <0>         0.0783
     41 H6         -0.2831    1.9356    1.2603 H         1 <0>         0.0854
     42 H7         -1.7219   -0.2618   -0.6824 H         1 <0>         0.0825
     43 H8         -1.1819   -1.5764    0.3981 H         1 <0>         0.0712
     44 H9         -3.8503    0.3695    4.2123 H         1 <0>         0.0857
     45 H10        -3.6793   -0.7230    2.8142 H         1 <0>         0.0940
     46 H11        -4.7303   -1.7878    4.8759 H         1 <0>         0.0979
     47 H12        -3.2928   -2.6273    4.2527 H         1 <0>         0.1012
     48 H13        -1.1858   -0.9750    7.1181 H         1 <0>         0.1401
     49 H14         0.2242    1.2714    5.2567 H         1 <0>         0.0769
     50 H15         0.8168   -0.2455    5.9860 H         1 <0>         0.1191
     51 H16         2.5309    0.9786    1.4169 H         1 <0>         0.0794
     52 H17         3.0281   -0.6882    1.8560 H         1 <0>         0.0812
     53 H18         3.1639    0.2948   -0.7426 H         1 <0>         0.0918
     54 H19         2.9263   -1.4357   -0.3662 H         1 <0>         0.0781
     55 H20         1.6240    0.3367   -2.6931 H         1 <0>         0.3838
     56 H21        -2.7602    1.2427   -0.9174 H         1 <0>         0.1222
     57 H22        -3.1455    3.6195   -1.4263 H         1 <0>         0.1223
     58 H23        -2.1108    4.6383    2.5966 H         1 <0>         0.1222
     59 H24        -1.7384    2.2577    3.0975 H         1 <0>         0.1174
     60 H25        -4.4917    6.0484   -0.9967 H         1 <0>         0.0483
     61 H26        -3.0296    7.0175   -1.2988 H         1 <0>         0.0661
     62 H27        -3.0829    5.3088   -1.7945 H         1 <0>         0.0696
     63 H28        -2.2695    6.1669    2.2037 H         1 <0>         0.0775
     64 H29        -1.7528    7.2827    0.9167 H         1 <0>         0.0528
     65 H30        -3.4512    7.2636    1.4492 H         1 <0>         0.0556
@<TRIPOS>BOND
     1    1    2 1
     2    1   39 1
     3    1   40 1
     4    1   41 1
     5    2   18 1
     6    2   22 1
     7    2    3 1
     8    3    4 1
     9    3   42 1
    10    3   43 1
    11    4    5 1
    12    4    6 1
    13    4   30 1
    14    6   16 1
    15    6    7 2
    16    7   13 1
    17    7    8 1
    18    8    9 1
    19    8   44 1
    20    8   45 1
    21    9   10 1
    22    9   46 1
    23    9   47 1
    24   10   11 2
    25   10   12 1
    26   12   13 2
    27   12   48 1
    28   13   14 1
    29   14   15 1
    30   14   49 1
    31   14   50 1
    32   15   16 1
    33   16   17 1
    34   16   18 1
    35   18   19 1
    36   18   20 1
    37   20   21 1
    38   20   51 1
    39   20   52 1
    40   21   22 1
    41   21   53 1
    42   21   54 1
    43   22   23 1
    44   22   29 1
    45   23   24 3
    46   24   25 1
    47   25   26 1
    48   25   27 1
    49   25   28 1
    50   29   55 1
    51   30   35 ar
    52   30   31 ar
    53   31   32 ar
    54   31   56 1
    55   32   33 ar
    56   32   57 1
    57   33   34 ar
    58   33   36 1
    59   34   35 ar
    60   34   58 1
    61   35   59 1
    62   36   37 1
    63   36   38 1
    64   37   60 1
    65   37   61 1
    66   37   62 1
    67   38   63 1
    68   38   64 1
    69   38   65 1
@<TRIPOS>MOLECULE
CHEMBL428011
   69    74     0     0     0
SMALL
USER_CHARGES

@<TRIPOS>ATOM
      1 C1          0.1008    1.6034    0.3034 C.3       1 <0>        -0.1530
      2 C2          0.1639    0.0751    0.2699 C.3       1 <0>        -0.0352
      3 C3         -1.2416   -0.5005    0.2663 C.3       1 <0>        -0.0966
      4 C4         -2.0016    0.1502    1.4331 C.3       1 <0>        -0.0107
      5 H1         -2.9637   -0.3471    1.5560 H         1 <0>         0.0994
      6 C5         -1.2142    0.0350    2.7196 C.2       1 <0>        -0.0887
      7 C6         -1.8695   -0.2814    3.8358 C.2       1 <0>        -0.1187
      8 C7         -3.3605   -0.5109    3.8351 C.3       1 <0>        -0.0773
      9 C8         -3.6751   -1.7092    4.7357 C.3       1 <0>        -0.1661
     10 C9         -3.0007   -1.5449    6.0708 C.2       1 <0>         0.3863
     11 O1         -3.5678   -1.9252    7.0754 O.2       1 <0>        -0.4638
     12 C10        -1.7261   -0.9598    6.1779 C.2       1 <0>        -0.2241
     13 C11        -1.1460   -0.3818    5.1056 C.2       1 <0>        -0.0239
     14 C12         0.2524    0.1842    5.1559 C.3       1 <0>         0.0932
     15 O2          0.8997   -0.1559    3.9292 O.3       1 <0>        -0.3648
     16 C13         0.2756    0.2838    2.7338 C.3       1 <0>         0.1352
     17 H2          0.4589    1.3509    2.6088 H         1 <0>         0.0867
     18 C14         0.8748   -0.4532    1.5439 C.3       1 <0>        -0.0772
     19 H3          0.7440   -1.5308    1.6428 H         1 <0>         0.0890
     20 C15         2.3399   -0.0964    1.2566 C.3       1 <0>        -0.1085
     21 C16         2.4985   -0.4472   -0.2466 C.3       1 <0>        -0.1458
     22 C17         1.0799   -0.3830   -0.8626 C.3       1 <0>         0.2616
     23 C18         0.6717   -1.7139   -1.3411 C.1       1 <0>        -0.2007
     24 C19         0.3462   -2.7753   -1.7228 C.1       1 <0>        -0.1285
     25 C20        -0.0619   -4.1062   -2.2013 C.3       1 <0>        -0.0559
     26 C21         0.8810   -5.2778   -1.9201 C.3       1 <0>        -0.1641
     27 C22         0.7487   -4.7264   -3.3411 C.3       1 <0>        -0.1628
     28 O3          1.0490    0.5602   -1.9357 O.3       1 <0>        -0.5372
     29 C23        -2.2326    1.6067    1.1233 C.ar      1 <0>        -0.1164
     30 C24        -2.6283    1.9877   -0.1458 C.ar      1 <0>        -0.0629
     31 C25        -2.8409    3.3217   -0.4332 C.ar      1 <0>        -0.1938
     32 C26        -2.6569    4.2812    0.5543 C.ar      1 <0>         0.2142
     33 C27        -2.2594    3.8950    1.8281 C.ar      1 <0>        -0.1937
     34 C28        -2.0540    2.5587    2.1102 C.ar      1 <0>        -0.0763
     35 N1         -2.8706    5.6313    0.2670 N.pl3     1 <0>        -0.6387
     36 C29        -3.4008    6.0270   -1.0401 C.3       1 <0>         0.0887
     37 C30        -2.5646    6.6516    1.2728 C.3       1 <0>         0.0927
     38 H4          1.1018    2.0115    0.1636 H         1 <0>         0.0502
     39 H5         -0.5508    1.9578   -0.4953 H         1 <0>         0.0759
     40 H6         -0.2935    1.9298    1.2657 H         1 <0>         0.0815
     41 H7         -1.7366   -0.2656   -0.6761 H         1 <0>         0.0791
     42 H8         -1.2008   -1.5807    0.4061 H         1 <0>         0.0707
     43 H9         -3.8669    0.3758    4.2165 H         1 <0>         0.0848
     44 H10        -3.6978   -0.7185    2.8196 H         1 <0>         0.0937
     45 H11        -4.7531   -1.7786    4.8815 H         1 <0>         0.0972
     46 H12        -3.3173   -2.6224    4.2601 H         1 <0>         0.1006
     47 H13        -1.2081   -0.9729    7.1255 H         1 <0>         0.1396
     48 H14         0.2091    1.2681    5.2631 H         1 <0>         0.0764
     49 H15         0.7972   -0.2498    5.9943 H         1 <0>         0.1184
     50 H16         2.5179    0.9656    1.4253 H         1 <0>         0.0753
     51 H17         3.0104   -0.7020    1.8663 H         1 <0>         0.0763
     52 H18         3.1507    0.2781   -0.7331 H         1 <0>         0.0826
     53 H19         2.9083   -1.4513   -0.3552 H         1 <0>         0.0739
     54 H20        -1.1333   -4.3055   -2.1793 H         1 <0>         0.1276
     55 H21         1.8035   -5.0631   -1.3807 H         1 <0>         0.0973
     56 H22         0.4300   -6.2483   -1.7128 H         1 <0>         0.1052
     57 H23         0.2107   -5.3340   -4.0687 H         1 <0>         0.1053
     58 H24         1.5843   -4.1489   -3.7366 H         1 <0>         0.0980
     59 H25         1.6124    0.3223   -2.6848 H         1 <0>         0.3782
     60 H26        -2.7708    1.2413   -0.9132 H         1 <0>         0.1222
     61 H27        -3.1495    3.6187   -1.4246 H         1 <0>         0.1231
     62 H28        -2.1151    4.6385    2.5981 H         1 <0>         0.1204
     63 H29        -1.7493    2.2574    3.1015 H         1 <0>         0.1168
     64 H30        -3.4803    5.1489   -1.6809 H         1 <0>         0.0782
     65 H31        -4.3867    6.4738   -0.9121 H         1 <0>         0.0520
     66 H32        -2.7299    6.7527   -1.4997 H         1 <0>         0.0555
     67 H33        -1.5313    6.9783    1.1562 H         1 <0>         0.0482
     68 H34        -3.2320    7.5032    1.1411 H         1 <0>         0.0657
     69 H35        -2.7028    6.2323    2.2694 H         1 <0>         0.0684
@<TRIPOS>BOND
     1    1    2 1
     2    1   38 1
     3    1   39 1
     4    1   40 1
     5    2   18 1
     6    2   22 1
     7    2    3 1
     8    3    4 1
     9    3   41 1
    10    3   42 1
    11    4    5 1
    12    4    6 1
    13    4   29 1
    14    6   16 1
    15    6    7 2
    16    7   13 1
    17    7    8 1
    18    8    9 1
    19    8   43 1
    20    8   44 1
    21    9   10 1
    22    9   45 1
    23    9   46 1
    24   10   11 2
    25   10   12 1
    26   12   13 2
    27   12   47 1
    28   13   14 1
    29   14   15 1
    30   14   48 1
    31   14   49 1
    32   15   16 1
    33   16   17 1
    34   16   18 1
    35   18   19 1
    36   18   20 1
    37   20   21 1
    38   20   50 1
    39   20   51 1
    40   21   22 1
    41   21   52 1
    42   21   53 1
    43   22   23 1
    44   22   28 1
    45   23   24 3
    46   24   25 1
    47   25   27 1
    48   25   26 1
    49   25   54 1
    50   26   27 1
    51   26   55 1
    52   26   56 1
    53   27   57 1
    54   27   58 1
    55   28   59 1
    56   29   34 ar
    57   29   30 ar
    58   30   31 ar
    59   30   60 1
    60   31   32 ar
    61   31   61 1
    62   32   33 ar
    63   32   35 1
    64   33   34 ar
    65   33   62 1
    66   34   63 1
    67   35   36 1
    68   35   37 1
    69   36   64 1
    70   36   65 1
    71   36   66 1
    72   37   67 1
    73   37   68 1
    74   37   69 1
@<TRIPOS>MOLECULE
CHEMBL474381
   44    48     0     0     0
SMALL
USER_CHARGES

@<TRIPOS>ATOM
      1 C1         -0.0187    1.5258    0.0104 C.3       1 <0>        -0.1323
      2 C2          0.0021   -0.0041    0.0020 C.3       1 <0>        -0.0374
      3 C3         -1.4331   -0.5230   -0.0337 C.3       1 <0>        -0.0893
      4 C4         -1.7420   -1.4066    1.1945 C.3       1 <0>        -0.0109
      5 C5         -1.4145   -0.5443    2.4037 C.ar      1 <0>        -0.0762
      6 C6         -2.2950   -0.2313    3.3995 C.ar      1 <0>        -0.1067
      7 C7         -1.8613    0.5687    4.4489 C.ar      1 <0>        -0.1212
      8 C8         -0.5611    1.0373    4.4816 C.ar      1 <0>        -0.1211
      9 C9          0.3289    0.7151    3.4651 C.ar      1 <0>        -0.1060
     10 C10        -0.1044   -0.0717    2.4363 C.ar      1 <0>        -0.0751
     11 C11         0.7505   -0.5062    1.2559 C.3       1 <0>         0.0144
     12 C12         0.6302   -2.0218    1.2170 C.ar      1 <0>        -0.0601
     13 C13        -0.6798   -2.4950    1.1849 C.ar      1 <0>        -0.0860
     14 C14        -0.9374   -3.8357    1.1480 C.ar      1 <0>        -0.1117
     15 C15         0.1317   -4.7225    1.1424 C.ar      1 <0>        -0.1250
     16 C16         1.4315   -4.2528    1.1745 C.ar      1 <0>        -0.1255
     17 C17         1.6861   -2.8879    1.2114 C.ar      1 <0>        -0.0816
     18 C18         0.7282   -0.4805   -1.2296 C.2       1 <0>         0.5134
     19 O1          1.7281   -1.1643   -1.1197 O.2       1 <0>        -0.5894
     20 N1          0.2766   -0.1539   -2.4343 N.2       1 <0>        -0.6762
     21 C19         0.9193   -0.5756   -3.5244 C.2       1 <0>         0.6087
     22 N2          2.0326   -1.3419   -3.5442 N.pl3     1 <0>        -0.5964
     23 H1          2.5046   -1.6821   -2.7681 H         1 <0>         0.4495
     24 C20         2.3801   -1.5564   -4.8656 C.2       1 <0>        -0.0124
     25 C21         1.4912   -0.9300   -5.6321 C.2       1 <0>        -0.0126
     26 N3          0.5687   -0.3168   -4.8039 N.pl3     1 <0>        -0.5801
     27 H2          1.0039    1.9031    0.0027 H         1 <0>         0.0525
     28 H3         -0.5459    1.8868   -0.8726 H         1 <0>         0.0713
     29 H4         -0.5289    1.8773    0.9072 H         1 <0>         0.0643
     30 H5         -2.1187    0.3243   -0.0450 H         1 <0>         0.0784
     31 H6         -1.5779   -1.1098   -0.9408 H         1 <0>         0.0751
     32 H7         -2.7585   -1.8000    1.1944 H         1 <0>         0.1046
     33 H8         -3.3102   -0.5988    3.3715 H         1 <0>         0.1242
     34 H9         -2.5445    0.8266    5.2446 H         1 <0>         0.1211
     35 H10        -0.2354    1.6585    5.3029 H         1 <0>         0.1212
     36 H11         1.3451    1.0802    3.4878 H         1 <0>         0.1236
     37 H12         1.7774   -0.1457    1.3148 H         1 <0>         0.1030
     38 H13        -1.9539   -4.1998    1.1239 H         1 <0>         0.1213
     39 H14        -0.0538   -5.7860    1.1131 H         1 <0>         0.1181
     40 H15         2.2547   -4.9520    1.1704 H         1 <0>         0.1176
     41 H16         2.7005   -2.5182    1.2363 H         1 <0>         0.1211
     42 H17        -0.1946    0.2087   -5.0909 H         1 <0>         0.4441
     43 H18         3.2252   -2.1315   -5.2143 H         1 <0>         0.1901
     44 H19         1.4885   -0.9072   -6.7118 H         1 <0>         0.1958
@<TRIPOS>BOND
     1    1    2 1
     2    1   27 1
     3    1   28 1
     4    1   29 1
     5    2   11 1
     6    2    3 1
     7    2   18 1
     8    3    4 1
     9    3   30 1
    10    3   31 1
    11    4   13 1
    12    4    5 1
    13    4   32 1
    14    5   10 ar
    15    5    6 ar
    16    6    7 ar
    17    6   33 1
    18    7    8 ar
    19    7   34 1
    20    8    9 ar
    21    8   35 1
    22    9   10 ar
    23    9   36 1
    24   10   11 1
    25   11   12 1
    26   11   37 1
    27   12   17 ar
    28   12   13 ar
    29   13   14 ar
    30   14   15 ar
    31   14   38 1
    32   15   16 ar
    33   15   39 1
    34   16   17 ar
    35   16   40 1
    36   17   41 1
    37   18   19 2
    38   18   20 1
    39   20   21 2
    40   21   26 1
    41   21   22 1
    42   22   24 1
    43   22   23 1
    44   24   43 1
    45   24   25 2
    46   25   44 1
    47   25   26 1
    48   26   42 1
@<TRIPOS>MOLECULE
CHEMBL474381__1
   44    48     0     0     0
SMALL
USER_CHARGES

@<TRIPOS>ATOM
      1 C1         -0.0187    1.5258    0.0104 C.3       1 <0>        -0.1323
      2 C2          0.0021   -0.0041    0.0020 C.3       1 <0>        -0.0374
      3 C3          0.6771   -0.4875   -1.2790 C.3       1 <0>        -0.0894
      4 C4          1.9222   -1.3465   -0.9684 C.3       1 <0>        -0.0108
      5 C5          1.4265   -2.4605   -0.0594 C.ar      1 <0>        -0.0851
      6 C6          1.5501   -3.7948   -0.3226 C.ar      1 <0>        -0.1117
      7 C7          1.0508   -4.7073    0.5978 C.ar      1 <0>        -0.1251
      8 C8          0.4407   -4.2692    1.7584 C.ar      1 <0>        -0.1254
      9 C9          0.3182   -2.9104    2.0194 C.ar      1 <0>        -0.0816
     10 C10         0.8113   -2.0189    1.1100 C.ar      1 <0>        -0.0608
     11 C11         0.7505   -0.5062    1.2559 C.3       1 <0>         0.0140
     12 C12         2.1860   -0.0342    1.0844 C.ar      1 <0>        -0.0742
     13 C13         2.8019   -0.4760   -0.0845 C.ar      1 <0>        -0.0771
     14 C14         4.0916   -0.1283   -0.3688 C.ar      1 <0>        -0.1067
     15 C15         4.7812    0.6761    0.5294 C.ar      1 <0>        -0.1212
     16 C16         4.1698    1.1150    1.6890 C.ar      1 <0>        -0.1211
     17 C17         2.8580    0.7567    1.9721 C.ar      1 <0>        -0.1060
     18 C18        -1.4147   -0.5165    0.0350 C.2       1 <0>         0.5134
     19 O1         -1.7846   -1.2233    0.9533 O.2       1 <0>        -0.5895
     20 N1         -2.2591   -0.1965   -0.9379 N.2       1 <0>        -0.6762
     21 C19        -3.5132   -0.6501   -0.9087 C.2       1 <0>         0.6086
     22 N2         -4.0526   -1.4345    0.0509 N.pl3     1 <0>        -0.5964
     23 H1         -3.5957   -1.7665    0.8396 H         1 <0>         0.4495
     24 C20        -5.3706   -1.6800   -0.2889 C.2       1 <0>        -0.0124
     25 C21        -5.6237   -1.0541   -1.4353 C.2       1 <0>        -0.0126
     26 N3         -4.4701   -0.4015   -1.8305 N.pl3     1 <0>        -0.5800
     27 H2          1.0039    1.9031    0.0027 H         1 <0>         0.0643
     28 H3         -0.5459    1.8868   -0.8726 H         1 <0>         0.0712
     29 H4         -0.5289    1.8773    0.9072 H         1 <0>         0.0524
     30 H5         -0.0326   -1.0827   -1.8535 H         1 <0>         0.0752
     31 H6          0.9785    0.3764   -1.8714 H         1 <0>         0.0784
     32 H7          2.4322   -1.7010   -1.8641 H         1 <0>         0.1046
     33 H8          2.0272   -4.1343   -1.2301 H         1 <0>         0.1213
     34 H9          1.1394   -5.7663    0.4054 H         1 <0>         0.1180
     35 H10         0.0564   -4.9882    2.4668 H         1 <0>         0.1176
     36 H11        -0.1583   -2.5653    2.9251 H         1 <0>         0.1210
     37 H12         0.2876   -0.1840    2.1887 H         1 <0>         0.1033
     38 H13         4.5668   -0.4728   -1.2754 H         1 <0>         0.1242
     39 H14         5.8018    0.9608    0.3203 H         1 <0>         0.1211
     40 H15         4.7160    1.7401    2.3798 H         1 <0>         0.1211
     41 H16         2.3780    1.0978    2.8775 H         1 <0>         0.1236
     42 H17        -4.3654    0.1380   -2.6298 H         1 <0>         0.4441
     43 H18        -6.0715   -2.2757    0.2770 H         1 <0>         0.1901
     44 H19        -6.5659   -1.0530   -1.9631 H         1 <0>         0.1958
@<TRIPOS>BOND
     1    1    2 1
     2    1   27 1
     3    1   28 1
     4    1   29 1
     5    2   11 1
     6    2    3 1
     7    2   18 1
     8    3    4 1
     9    3   30 1
    10    3   31 1
    11    4   13 1
    12    4    5 1
    13    4   32 1
    14    5   10 ar
    15    5    6 ar
    16    6    7 ar
    17    6   33 1
    18    7    8 ar
    19    7   34 1
    20    8    9 ar
    21    8   35 1
    22    9   10 ar
    23    9   36 1
    24   10   11 1
    25   11   12 1
    26   11   37 1
    27   12   17 ar
    28   12   13 ar
    29   13   14 ar
    30   14   15 ar
    31   14   38 1
    32   15   16 ar
    33   15   39 1
    34   16   17 ar
    35   16   40 1
    36   17   41 1
    37   18   19 2
    38   18   20 1
    39   20   21 2
    40   21   26 1
    41   21   22 1
    42   22   24 1
    43   22   23 1
    44   24   43 1
    45   24   25 2
    46   25   44 1
    47   25   26 1
    48   26   42 1
@<TRIPOS>MOLECULE
CHEMBL231967
   75    80     0     0     0
SMALL
USER_CHARGES

@<TRIPOS>ATOM
      1 C1         -0.2343    1.0204    0.6798 C.3       1 <0>        -0.1206
      2 C2         -0.3294   -0.4879    0.7401 C.2       1 <0>        -0.0951
      3 C3         -0.2151   -1.1393   -0.3884 C.2       1 <0>        -0.1436
      4 C4         -0.2013   -2.6358   -0.4792 C.3       1 <0>         0.1446
      5 N1          0.1621   -3.2156    0.8230 N.3       1 <0>        -0.6657
      6 C5         -0.6919   -2.6985    1.8782 C.3       1 <0>         0.1177
      7 C6         -0.5167   -1.1797    2.0342 C.3       1 <0>         0.0109
      8 C7         -1.5998   -0.7365    2.9559 C.2       1 <0>        -0.1077
      9 C8         -1.7006   -1.4770    4.1448 C.2       1 <0>        -0.0078
     10 C9         -0.8463   -2.6586    4.3133 C.2       1 <0>        -0.1206
     11 C10        -0.3635   -3.2888    3.2306 C.2       1 <0>        -0.1185
     12 C11        -2.6496   -1.0080    5.1643 C.ar      1 <0>        -0.1179
     13 C12        -3.2850    0.2337    4.9668 C.ar      1 <0>         0.1306
     14 C13        -4.1637    0.7243    5.9162 C.ar      1 <0>        -0.1274
     15 C14        -4.4334   -0.0074    7.0575 C.ar      1 <0>        -0.0875
     16 C15        -3.8298   -1.2386    7.2563 C.ar      1 <0>         0.0594
     17 C16        -2.9421   -1.7464    6.3122 C.ar      1 <0>         0.1256
     18 O1         -2.3871   -2.9684    6.5246 O.3       1 <0>        -0.3202
     19 C17        -3.1547   -4.1071    6.1295 C.3       1 <0>         0.0364
     20 O2         -4.1041   -1.9569    8.3795 O.3       1 <0>        -0.4808
     21 O3         -3.0478    0.9382    3.8295 O.3       1 <0>        -0.2323
     22 C18        -2.5718    0.2420    2.7617 C.2       1 <0>         0.1137
     23 C19        -3.1492    0.4657    1.5498 C.2       1 <0>        -0.1244
     24 C20        -3.9852    1.6472    1.3454 C.ar      1 <0>        -0.0033
     25 C21        -3.9126    2.7269    2.2363 C.ar      1 <0>        -0.0781
     26 C22        -4.7021    3.8357    2.0383 C.ar      1 <0>        -0.1303
     27 C23        -5.5758    3.8974    0.9584 C.ar      1 <0>         0.0937
     28 C24        -5.6657    2.8478    0.0682 C.ar      1 <0>        -0.1246
     29 C25        -4.8700    1.7129    0.2436 C.ar      1 <0>        -0.0978
     30 C26        -4.9563    0.5927   -0.7059 C.2       1 <0>         0.5658
     31 O4         -5.1079   -0.5425   -0.2954 O.2       1 <0>        -0.5238
     32 N2         -4.8674    0.8239   -2.0307 N.am      1 <0>        -0.6040
     33 C27        -4.5451    2.1651   -2.5366 C.3       1 <0>         0.1000
     34 C28        -3.3454    2.0599   -3.4833 C.3       1 <0>        -0.1349
     35 C29        -3.6513    1.0328   -4.5759 C.3       1 <0>        -0.1210
     36 C30        -3.8851   -0.3386   -3.9382 C.3       1 <0>        -0.1343
     37 C31        -5.0850   -0.2619   -2.9964 C.3       1 <0>         0.1107
     38 F1         -6.3435    4.9947    0.7799 F         1 <0>        -0.1350
     39 C32         0.8467   -3.0564   -1.5151 C.3       1 <0>        -0.1342
     40 C33        -1.5696   -3.1413   -0.9257 C.3       1 <0>        -0.1732
     41 H1          0.8079    1.3231    0.7809 H         1 <0>         0.0680
     42 H2         -0.6234    1.3710   -0.2761 H         1 <0>         0.0642
     43 H3         -0.8190    1.4541    1.4911 H         1 <0>         0.0645
     44 H4         -0.1272   -0.5692   -1.2978 H         1 <0>         0.1129
     45 H5          0.1465   -4.2237    0.7879 H         1 <0>         0.3501
     46 H6         -1.7369   -2.9109    1.6734 H         1 <0>         0.0534
     47 H7          0.4357   -1.0495    2.5983 H         1 <0>         0.0961
     48 H8         -0.5784   -3.0160    5.2963 H         1 <0>         0.1411
     49 H9          0.2332   -4.1776    3.3119 H         1 <0>         0.1351
     50 H10        -4.6414    1.6818    5.7678 H         1 <0>         0.1470
     51 H11        -5.1167    0.3830    7.7961 H         1 <0>         0.1478
     52 H12        -3.2794   -4.1033    5.0467 H         1 <0>         0.0489
     53 H13        -2.6369   -5.0172    6.4324 H         1 <0>         0.1005
     54 H14        -4.1333   -4.0694    6.6080 H         1 <0>         0.0448
     55 H15        -4.8539   -2.5605    8.2871 H         1 <0>         0.3857
     56 H16        -2.9898   -0.2298    0.7391 H         1 <0>         0.1494
     57 H17        -3.2373    2.6881    3.0782 H         1 <0>         0.1531
     58 H18        -4.6431    4.6651    2.7275 H         1 <0>         0.1421
     59 H19        -6.3477    2.9052   -0.7673 H         1 <0>         0.1408
     60 H20        -5.4022    2.5678   -3.0763 H         1 <0>         0.0722
     61 H21        -4.2955    2.8202   -1.7019 H         1 <0>         0.0896
     62 H22        -3.1560    3.0313   -3.9400 H         1 <0>         0.0778
     63 H23        -2.4660    1.7434   -2.9225 H         1 <0>         0.0681
     64 H24        -4.5452    1.3372   -5.1204 H         1 <0>         0.0653
     65 H25        -2.8089    0.9740   -5.2651 H         1 <0>         0.0674
     66 H26        -4.0799   -1.0742   -4.7185 H         1 <0>         0.0767
     67 H27        -3.0006   -0.6325   -3.3730 H         1 <0>         0.0672
     68 H28        -5.1915   -1.2076   -2.4650 H         1 <0>         0.0935
     69 H29        -5.9871   -0.0615   -3.5744 H         1 <0>         0.0692
     70 H30         1.8278   -2.6955   -1.2066 H         1 <0>         0.0654
     71 H31         0.8668   -4.1436   -1.5908 H         1 <0>         0.0568
     72 H32         0.5909   -2.6293   -2.4848 H         1 <0>         0.0612
     73 H33        -1.8098   -2.7239   -1.9036 H         1 <0>         0.0650
     74 H34        -1.5520   -4.2293   -0.9894 H         1 <0>         0.0580
     75 H35        -2.3248   -2.8318   -0.2032 H         1 <0>         0.0572
@<TRIPOS>BOND
     1    1    2 1
     2    1   41 1
     3    1   42 1
     4    1   43 1
     5    2    7 1
     6    2    3 2
     7    3    4 1
     8    3   44 1
     9    4    5 1
    10    4   39 1
    11    4   40 1
    12    5    6 1
    13    5   45 1
    14    6   11 1
    15    6    7 1
    16    6   46 1
    17    7    8 1
    18    7   47 1
    19    8   22 1
    20    8    9 2
    21    9   10 1
    22    9   12 1
    23   10   11 2
    24   10   48 1
    25   11   49 1
    26   12   17 ar
    27   12   13 ar
    28   13   14 ar
    29   13   21 1
    30   14   15 ar
    31   14   50 1
    32   15   16 ar
    33   15   51 1
    34   16   17 ar
    35   16   20 1
    36   17   18 1
    37   18   19 1
    38   19   52 1
    39   19   53 1
    40   19   54 1
    41   20   55 1
    42   21   22 1
    43   22   23 2
    44   23   24 1
    45   23   56 1
    46   24   29 ar
    47   24   25 ar
    48   25   26 ar
    49   25   57 1
    50   26   27 ar
    51   26   58 1
    52   27   28 ar
    53   27   38 1
    54   28   29 ar
    55   28   59 1
    56   29   30 1
    57   30   31 2
    58   30   32 am
    59   32   37 1
    60   32   33 1
    61   33   34 1
    62   33   60 1
    63   33   61 1
    64   34   35 1
    65   34   62 1
    66   34   63 1
    67   35   36 1
    68   35   64 1
    69   35   65 1
    70   36   37 1
    71   36   66 1
    72   36   67 1
    73   37   68 1
    74   37   69 1
    75   39   70 1
    76   39   71 1
    77   39   72 1
    78   40   73 1
    79   40   74 1
    80   40   75 1
@<TRIPOS>MOLECULE
CHEMBL231967__1
   76    81     0     0     0
SMALL
USER_CHARGES

@<TRIPOS>ATOM
      1 C1         -0.2405    1.0463    0.6712 C.3       1 <0>        -0.1317
      2 C2         -0.3223   -0.4618    0.7455 C.2       1 <0>        -0.0723
      3 C3         -0.2164   -1.1250   -0.3776 C.2       1 <0>        -0.1874
      4 C4         -0.1825   -2.6214   -0.4538 C.3       1 <0>         0.1010
      5 N1          0.2007   -3.1894    0.8465 N.4       1 <0>        -0.4878
      6 C5         -0.6679   -2.6677    1.8891 C.3       1 <0>         0.0527
      7 C6         -0.4929   -1.1490    2.0457 C.3       1 <0>        -0.0074
      8 C7         -1.5664   -0.6999    2.9744 C.2       1 <0>        -0.1018
      9 C8         -1.6850   -1.4534    4.1541 C.2       1 <0>        -0.0088
     10 C9         -0.8415   -2.6417    4.3232 C.2       1 <0>        -0.0365
     11 C10        -0.3517   -3.2650    3.2417 C.2       1 <0>        -0.2080
     12 C11        -2.6427   -0.9900    5.1681 C.ar      1 <0>        -0.1349
     13 C12        -3.2179    0.2863    5.0106 C.ar      1 <0>         0.1369
     14 C13        -4.0867    0.7796    5.9668 C.ar      1 <0>        -0.1243
     15 C14        -4.4194    0.0093    7.0658 C.ar      1 <0>        -0.0746
     16 C15        -3.8884   -1.2623    7.2148 C.ar      1 <0>         0.0659
     17 C16        -3.0022   -1.7685    6.2693 C.ar      1 <0>         0.1285
     18 O1         -2.5154   -3.0270    6.4285 O.3       1 <0>        -0.3236
     19 C17        -3.3279   -4.1019    5.9527 C.3       1 <0>         0.0342
     20 O2         -4.2387   -2.0235    8.2874 O.3       1 <0>        -0.4786
     21 O3         -2.9393    1.0109    3.8939 O.3       1 <0>        -0.2270
     22 C18        -2.5169    0.3052    2.8082 C.2       1 <0>         0.0866
     23 C19        -3.1285    0.5448    1.6176 C.2       1 <0>        -0.0922
     24 C20        -3.9357    1.7505    1.4402 C.ar      1 <0>        -0.0265
     25 C21        -3.8001    2.8283    2.3260 C.ar      1 <0>        -0.0688
     26 C22        -4.5628    3.9599    2.1535 C.ar      1 <0>        -0.1323
     27 C23        -5.4714    4.0466    1.1045 C.ar      1 <0>         0.1112
     28 C24        -5.6234    2.9993    0.2200 C.ar      1 <0>        -0.1277
     29 C25        -4.8560    1.8414    0.3698 C.ar      1 <0>        -0.0884
     30 C26        -5.0085    0.7235   -0.5741 C.2       1 <0>         0.5658
     31 O4         -5.1846   -0.4055   -0.1564 O.2       1 <0>        -0.5305
     32 N2         -4.9531    0.9499   -1.9015 N.am      1 <0>        -0.6014
     33 C27        -4.6010    2.2787   -2.4202 C.3       1 <0>         0.0966
     34 C28        -3.4357    2.1312   -3.4036 C.3       1 <0>        -0.1325
     35 C29        -3.8106    1.1140   -4.4838 C.3       1 <0>        -0.1247
     36 C30        -4.0712   -0.2478   -3.8360 C.3       1 <0>        -0.1308
     37 C31        -5.2378   -0.1289   -2.8575 C.3       1 <0>         0.1080
     38 F1         -6.2120    5.1660    0.9508 F         1 <0>        -0.1281
     39 C32         0.8667   -3.0335   -1.4936 C.3       1 <0>        -0.1729
     40 C33        -1.5433   -3.1523   -0.8915 C.3       1 <0>        -0.1705
     41 H1          0.8000    1.3586    0.7608 H         1 <0>         0.0847
     42 H2         -0.6406    1.3852   -0.2844 H         1 <0>         0.0804
     43 H3         -0.8219    1.4822    1.4836 H         1 <0>         0.0796
     44 H4         -0.1541   -0.5635   -1.2957 H         1 <0>         0.1530
     45 H5          0.1248   -4.1980    0.8059 H         1 <0>         0.4325
     46 H6         -1.7107   -2.8803    1.6743 H         1 <0>         0.1492
     47 H7          0.4653   -1.0168    2.5974 H         1 <0>         0.1191
     48 H8         -0.5910   -3.0080    5.3078 H         1 <0>         0.1606
     49 H9          0.2444   -4.1545    3.3223 H         1 <0>         0.1564
     50 H10        -4.5041    1.7703    5.8605 H         1 <0>         0.1519
     51 H11        -5.0948    0.4017    7.8105 H         1 <0>         0.1540
     52 H12        -4.3164   -4.0392    6.4076 H         1 <0>         0.0508
     53 H13        -3.4218   -4.0342    4.8688 H         1 <0>         0.0459
     54 H14        -2.8652   -5.0524    6.2186 H         1 <0>         0.1039
     55 H15        -5.0157   -2.5794    8.1382 H         1 <0>         0.3906
     56 H16        -3.0179   -0.1556    0.8031 H         1 <0>         0.1472
     57 H17        -3.0973    2.7701    3.1440 H         1 <0>         0.1541
     58 H18        -4.4552    4.7878    2.8386 H         1 <0>         0.1467
     59 H19        -6.3320    3.0762   -0.5914 H         1 <0>         0.1447
     60 H20        -5.4602    2.7100   -2.9338 H         1 <0>         0.0765
     61 H21        -4.3032    2.9258   -1.5952 H         1 <0>         0.0901
     62 H22        -3.2274    3.0951   -3.8681 H         1 <0>         0.0808
     63 H23        -2.5506    1.7854   -2.8697 H         1 <0>         0.0643
     64 H24        -4.7101    1.4483   -5.0009 H         1 <0>         0.0692
     65 H25        -2.9927    1.0254   -5.1988 H         1 <0>         0.0691
     66 H26        -4.3154   -0.9773   -4.6083 H         1 <0>         0.0788
     67 H27        -3.1802   -0.5713   -3.2980 H         1 <0>         0.0615
     68 H28        -5.3601   -1.0698   -2.3209 H         1 <0>         0.0935
     69 H29        -6.1501    0.1017   -3.4076 H         1 <0>         0.0734
     70 H30         1.8437   -2.6545   -1.1937 H         1 <0>         0.0838
     71 H31         0.9038   -4.1207   -1.5611 H         1 <0>         0.0853
     72 H32         0.5983   -2.6180   -2.4649 H         1 <0>         0.1086
     73 H33        -1.7922   -2.7488   -1.8730 H         1 <0>         0.1087
     74 H34        -1.5091   -4.2405   -0.9440 H         1 <0>         0.0856
     75 H35        -2.3015   -2.8471   -0.1703 H         1 <0>         0.0806
     76 H36         1.1630   -2.9458    1.0455 H         1 <0>         0.4297
@<TRIPOS>BOND
     1    1    2 1
     2    1   41 1
     3    1   42 1
     4    1   43 1
     5    2    7 1
     6    2    3 2
     7    3    4 1
     8    3   44 1
     9    4    5 1
    10    4   39 1
    11    4   40 1
    12    5    6 1
    13    5   45 1
    14    5   76 1
    15    6   11 1
    16    6    7 1
    17    6   46 1
    18    7    8 1
    19    7   47 1
    20    8   22 1
    21    8    9 2
    22    9   10 1
    23    9   12 1
    24   10   11 2
    25   10   48 1
    26   11   49 1
    27   12   17 ar
    28   12   13 ar
    29   13   14 ar
    30   13   21 1
    31   14   15 ar
    32   14   50 1
    33   15   16 ar
    34   15   51 1
    35   16   17 ar
    36   16   20 1
    37   17   18 1
    38   18   19 1
    39   19   52 1
    40   19   53 1
    41   19   54 1
    42   20   55 1
    43   21   22 1
    44   22   23 2
    45   23   24 1
    46   23   56 1
    47   24   29 ar
    48   24   25 ar
    49   25   26 ar
    50   25   57 1
    51   26   27 ar
    52   26   58 1
    53   27   28 ar
    54   27   38 1
    55   28   29 ar
    56   28   59 1
    57   29   30 1
    58   30   31 2
    59   30   32 am
    60   32   37 1
    61   32   33 1
    62   33   34 1
    63   33   60 1
    64   33   61 1
    65   34   35 1
    66   34   62 1
    67   34   63 1
    68   35   36 1
    69   35   64 1
    70   35   65 1
    71   36   37 1
    72   36   66 1
    73   36   67 1
    74   37   68 1
    75   37   69 1
    76   39   70 1
    77   39   71 1
    78   39   72 1
    79   40   73 1
    80   40   74 1
    81   40   75 1
@<TRIPOS>MOLECULE
CHEMBL231967__2
   75    80     0     0     0
SMALL
USER_CHARGES

@<TRIPOS>ATOM
      1 C1         -1.2979    2.2022   -0.0640 C.3       1 <0>        -0.1269
      2 C2         -1.8565    0.9548    0.5708 C.2       1 <0>        -0.1054
      3 C3         -2.1995   -0.0318   -0.2006 C.2       1 <0>        -0.1781
      4 C4         -2.7594   -1.3234    0.3227 C.3       1 <0>         0.1390
      5 N1         -3.2668   -1.1370    1.6879 N.3       1 <0>        -0.6582
      6 C5         -2.2408   -0.5151    2.5378 C.3       1 <0>         0.1174
      7 C6         -1.9849    0.9086    2.0660 C.3       1 <0>        -0.0288
      8 C7         -0.7450    1.4701    2.7042 C.2       1 <0>        -0.1159
      9 C8          0.3130    0.6358    2.9960 C.2       1 <0>         0.0119
     10 C9          0.2093   -0.8014    2.7208 C.2       1 <0>        -0.1528
     11 C10        -0.9845   -1.3370    2.4969 C.2       1 <0>        -0.1067
     12 C11         1.5269    1.2272    3.5846 C.ar      1 <0>        -0.1232
     13 C12         1.5415    2.6053    3.8531 C.ar      1 <0>         0.1304
     14 C13         2.6775    3.1783    4.4049 C.ar      1 <0>        -0.1269
     15 C14         3.7830    2.3992    4.6897 C.ar      1 <0>        -0.0858
     16 C15         3.7731    1.0368    4.4298 C.ar      1 <0>         0.0628
     17 C16         2.6452    0.4433    3.8762 C.ar      1 <0>         0.1264
     18 O1          2.6307   -0.8912    3.6198 O.3       1 <0>        -0.3176
     19 C17         2.3263   -1.7588    4.7137 C.3       1 <0>         0.0304
     20 O2          4.8678    0.2814    4.7169 O.3       1 <0>        -0.4807
     21 O3          0.4591    3.3678    3.5790 O.3       1 <0>        -0.2154
     22 C18        -0.6429    2.8406    3.0094 C.2       1 <0>         0.1367
     23 C19        -1.6941    3.6625    2.7185 C.2       1 <0>        -0.1768
     24 C20        -1.5619    5.1078    2.8929 C.ar      1 <0>         0.0087
     25 C21        -0.2925    5.6962    2.9768 C.ar      1 <0>        -0.0917
     26 C22        -0.1751    7.0568    3.1410 C.ar      1 <0>        -0.1270
     27 C23        -1.3078    7.8588    3.2250 C.ar      1 <0>         0.0865
     28 C24        -2.5678    7.3035    3.1457 C.ar      1 <0>        -0.1219
     29 C25        -2.7139    5.9248    2.9726 C.ar      1 <0>        -0.1052
     30 C26        -4.0549    5.3270    2.8806 C.2       1 <0>         0.5662
     31 O4         -4.3429    4.3697    3.5738 O.2       1 <0>        -0.5250
     32 N2         -4.9643    5.8398    2.0283 N.am      1 <0>        -0.6046
     33 C27        -4.6059    6.9423    1.1256 C.3       1 <0>         0.0983
     34 C28        -4.9581    6.5387   -0.3097 C.3       1 <0>        -0.1354
     35 C29        -6.4310    6.1280   -0.3730 C.3       1 <0>        -0.1213
     36 C30        -6.6657    4.9218    0.5393 C.3       1 <0>        -0.1346
     37 C31        -6.3311    5.3030    1.9799 C.3       1 <0>         0.1101
     38 F1         -1.1730    9.1934    3.3863 F         1 <0>        -0.1364
     39 C32        -1.6593   -2.3868    0.3311 C.3       1 <0>        -0.1484
     40 C33        -3.9014   -1.7858   -0.5844 C.3       1 <0>        -0.1388
     41 H1         -0.2147    2.1135   -0.1477 H         1 <0>         0.0644
     42 H2         -1.7297    2.3294   -1.0567 H         1 <0>         0.0621
     43 H3         -1.5451    3.0660    0.5532 H         1 <0>         0.0716
     44 H4         -2.0761    0.0815   -1.2675 H         1 <0>         0.1115
     45 H5         -4.1152   -0.5909    1.6868 H         1 <0>         0.3482
     46 H6         -2.6065   -0.4787    3.5640 H         1 <0>         0.1004
     47 H7         -2.8291    1.5301    2.3645 H         1 <0>         0.0985
     48 H8          1.0969   -1.4165    2.7059 H         1 <0>         0.1546
     49 H9         -1.0490   -2.3914    2.2724 H         1 <0>         0.1424
     50 H10         2.6986    4.2379    4.6126 H         1 <0>         0.1484
     51 H11         4.6630    2.8556    5.1184 H         1 <0>         0.1493
     52 H12         1.3340   -1.5237    5.0987 H         1 <0>         0.0533
     53 H13         2.3481   -2.7941    4.3734 H         1 <0>         0.1025
     54 H14         3.0646   -1.6204    5.5035 H         1 <0>         0.0476
     55 H15         4.8667   -0.0892    5.6101 H         1 <0>         0.3872
     56 H16        -2.6231    3.2447    2.3597 H         1 <0>         0.1531
     57 H17         0.5932    5.0814    2.9130 H         1 <0>         0.1526
     58 H18         0.8050    7.5058    3.2055 H         1 <0>         0.1402
     59 H19        -3.4414    7.9349    3.2124 H         1 <0>         0.1401
     60 H20        -5.1647    7.8366    1.4012 H         1 <0>         0.0725
     61 H21        -3.5365    7.1405    1.1974 H         1 <0>         0.0910
     62 H22        -4.7869    7.3830   -0.9774 H         1 <0>         0.0776
     63 H23        -4.3330    5.6998   -0.6155 H         1 <0>         0.0677
     64 H24        -7.0543    6.9592   -0.0434 H         1 <0>         0.0657
     65 H25        -6.6906    5.8638   -1.3981 H         1 <0>         0.0671
     66 H26        -7.7098    4.6153    0.4759 H         1 <0>         0.0774
     67 H27        -6.0245    4.0981    0.2255 H         1 <0>         0.0664
     68 H28        -6.3996    4.4200    2.6153 H         1 <0>         0.0945
     69 H29        -7.0337    6.0607    2.3268 H         1 <0>         0.0695
     70 H30        -0.7204   -1.9357    0.6520 H         1 <0>         0.0711
     71 H31        -1.9323   -3.1864    1.0197 H         1 <0>         0.0716
     72 H32        -1.5417   -2.7958   -0.6723 H         1 <0>         0.0585
     73 H33        -3.5240   -1.9357   -1.5959 H         1 <0>         0.0635
     74 H34        -4.3091   -2.7232   -0.2060 H         1 <0>         0.0676
     75 H35        -4.6847   -1.0279   -0.5973 H         1 <0>         0.0550
@<TRIPOS>BOND
     1    1    2 1
     2    1   41 1
     3    1   42 1
     4    1   43 1
     5    2    7 1
     6    2    3 2
     7    3    4 1
     8    3   44 1
     9    4    5 1
    10    4   39 1
    11    4   40 1
    12    5    6 1
    13    5   45 1
    14    6   11 1
    15    6    7 1
    16    6   46 1
    17    7    8 1
    18    7   47 1
    19    8   22 1
    20    8    9 2
    21    9   10 1
    22    9   12 1
    23   10   11 2
    24   10   48 1
    25   11   49 1
    26   12   17 ar
    27   12   13 ar
    28   13   14 ar
    29   13   21 1
    30   14   15 ar
    31   14   50 1
    32   15   16 ar
    33   15   51 1
    34   16   17 ar
    35   16   20 1
    36   17   18 1
    37   18   19 1
    38   19   52 1
    39   19   53 1
    40   19   54 1
    41   20   55 1
    42   21   22 1
    43   22   23 2
    44   23   24 1
    45   23   56 1
    46   24   29 ar
    47   24   25 ar
    48   25   26 ar
    49   25   57 1
    50   26   27 ar
    51   26   58 1
    52   27   28 ar
    53   27   38 1
    54   28   29 ar
    55   28   59 1
    56   29   30 1
    57   30   31 2
    58   30   32 am
    59   32   37 1
    60   32   33 1
    61   33   34 1
    62   33   60 1
    63   33   61 1
    64   34   35 1
    65   34   62 1
    66   34   63 1
    67   35   36 1
    68   35   64 1
    69   35   65 1
    70   36   37 1
    71   36   66 1
    72   36   67 1
    73   37   68 1
    74   37   69 1
    75   39   70 1
    76   39   71 1
    77   39   72 1
    78   40   73 1
    79   40   74 1
    80   40   75 1
@<TRIPOS>MOLECULE
CHEMBL231967__3
   76    81     0     0     0
SMALL
USER_CHARGES

@<TRIPOS>ATOM
      1 C1          0.4909    1.5901   -0.1694 C.3       1 <0>        -0.1367
      2 C2          0.1931    0.1927    0.3099 C.2       1 <0>        -0.0771
      3 C3          0.2445   -0.7830   -0.5463 C.2       1 <0>        -0.1817
      4 C4         -0.0284   -2.2115   -0.1719 C.3       1 <0>         0.1024
      5 N1         -0.7918   -2.2717    1.0798 N.4       1 <0>        -0.4965
      6 C5         -0.0922   -1.4937    2.1114 C.3       1 <0>         0.0772
      7 C6         -0.1447   -0.0143    1.7590 C.3       1 <0>        -0.0229
      8 C7          0.8010    0.7751    2.6211 C.2       1 <0>        -0.1016
      9 C8          1.9826    0.2037    3.0429 C.2       1 <0>         0.0007
     10 C9          2.2936   -1.1841    2.6833 C.2       1 <0>        -0.0651
     11 C10         1.3246   -1.9754    2.2371 C.2       1 <0>        -0.2109
     12 C11         2.9024    1.0196    3.8540 C.ar      1 <0>        -0.1359
     13 C12         2.5230    2.3298    4.1877 C.ar      1 <0>         0.1373
     14 C13         3.3786    3.1122    4.9487 C.ar      1 <0>        -0.1232
     15 C14         4.5915    2.6056    5.3759 C.ar      1 <0>        -0.0743
     16 C15         4.9702    1.3113    5.0520 C.ar      1 <0>         0.0708
     17 C16         4.1277    0.5111    4.2900 C.ar      1 <0>         0.1259
     18 O1          4.4935   -0.7584    3.9714 O.3       1 <0>        -0.3213
     19 C17         4.2458   -1.7699    4.9500 C.3       1 <0>         0.0259
     20 O2          6.1669    0.8252    5.4800 O.3       1 <0>        -0.4783
     21 O3          1.3349    2.8250    3.7740 O.3       1 <0>        -0.2098
     22 C18         0.5014    2.0957    3.0058 C.2       1 <0>         0.1150
     23 C19        -0.6714    2.6562    2.5867 C.2       1 <0>        -0.1468
     24 C20        -0.9255    4.0771    2.8165 C.ar      1 <0>        -0.0102
     25 C21         0.1360    4.9486    3.0968 C.ar      1 <0>        -0.0828
     26 C22        -0.1101    6.2846    3.3121 C.ar      1 <0>        -0.1273
     27 C23        -1.4070    6.7826    3.2545 C.ar      1 <0>         0.1022
     28 C24        -2.4683    5.9452    2.9809 C.ar      1 <0>        -0.1246
     29 C25        -2.2441    4.5853    2.7522 C.ar      1 <0>        -0.0983
     30 C26        -3.3709    3.6880    2.4534 C.2       1 <0>         0.5675
     31 O4         -3.4636    2.6173    3.0235 O.2       1 <0>        -0.5356
     32 N2         -4.3005    4.0520    1.5480 N.am      1 <0>        -0.6016
     33 C27        -4.1406    5.2851    0.7652 C.3       1 <0>         0.0942
     34 C28        -4.2625    4.9437   -0.7232 C.3       1 <0>        -0.1340
     35 C29        -5.5835    4.2108   -0.9678 C.3       1 <0>        -0.1245
     36 C30        -5.5998    2.9050   -0.1697 C.3       1 <0>        -0.1322
     37 C31        -5.4901    3.2202    1.3206 C.3       1 <0>         0.1086
     38 F1         -1.6296    8.0979    3.4687 F         1 <0>        -0.1299
     39 C32         1.2991   -2.9506    0.0082 C.3       1 <0>        -0.1837
     40 C33        -0.8312   -2.8833   -1.2878 C.3       1 <0>        -0.1723
     41 H1          1.5585    1.7876   -0.0727 H         1 <0>         0.0820
     42 H2          0.1968    1.6861   -1.2145 H         1 <0>         0.0788
     43 H3         -0.0672    2.3073    0.4325 H         1 <0>         0.0827
     44 H4          0.4940   -0.5568   -1.5724 H         1 <0>         0.1531
     45 H5         -1.7120   -1.8850    0.9322 H         1 <0>         0.4316
     46 H6         -0.5994   -1.6373    3.0655 H         1 <0>         0.1526
     47 H7         -1.1555    0.3513    1.9401 H         1 <0>         0.1286
     48 H8          3.3016   -1.5581    2.7851 H         1 <0>         0.1737
     49 H9          1.5668   -2.9885    1.9518 H         1 <0>         0.1628
     50 H10         3.0961    4.1218    5.2083 H         1 <0>         0.1536
     51 H11         5.2509    3.2237    5.9673 H         1 <0>         0.1554
     52 H12         4.7869   -1.5301    5.8654 H         1 <0>         0.0547
     53 H13         3.1775   -1.8172    5.1612 H         1 <0>         0.0505
     54 H14         4.5841   -2.7338    4.5699 H         1 <0>         0.1056
     55 H15         6.1283    0.3876    6.3414 H         1 <0>         0.3920
     56 H16        -1.4110    2.0495    2.0854 H         1 <0>         0.1523
     57 H17         1.1467    4.5710    3.1440 H         1 <0>         0.1522
     58 H18         0.7108    6.9523    3.5281 H         1 <0>         0.1449
     59 H19        -3.4720    6.3416    2.9386 H         1 <0>         0.1444
     60 H20        -4.9184    5.9969    1.0417 H         1 <0>         0.0766
     61 H21        -3.1597    5.7180    0.9617 H         1 <0>         0.0925
     62 H22        -4.2418    5.8620   -1.3100 H         1 <0>         0.0810
     63 H23        -3.4312    4.3036   -1.0188 H         1 <0>         0.0657
     64 H24        -6.4132    4.8417   -0.6489 H         1 <0>         0.0688
     65 H25        -5.6841    3.9884   -2.0301 H         1 <0>         0.0693
     66 H26        -6.5310    2.3724   -0.3627 H         1 <0>         0.0787
     67 H27        -4.7560    2.2842   -0.4706 H         1 <0>         0.0624
     68 H28        -5.3993    2.2912    1.8833 H         1 <0>         0.0932
     69 H29        -6.3804    3.7599    1.6434 H         1 <0>         0.0733
     70 H30         2.0268   -2.2832    0.4699 H         1 <0>         0.1035
     71 H31         1.1469   -3.8203    0.6474 H         1 <0>         0.0836
     72 H32         1.6693   -3.2748   -0.9644 H         1 <0>         0.1021
     73 H33        -0.2599   -2.8524   -2.2156 H         1 <0>         0.1080
     74 H34        -1.0305   -3.9205   -1.0182 H         1 <0>         0.0845
     75 H35        -1.7751   -2.3556   -1.4246 H         1 <0>         0.0828
     76 H36        -0.8731   -3.2319    1.3791 H         1 <0>         0.4333
@<TRIPOS>BOND
     1    1    2 1
     2    1   41 1
     3    1   42 1
     4    1   43 1
     5    2    7 1
     6    2    3 2
     7    3    4 1
     8    3   44 1
     9    4    5 1
    10    4   39 1
    11    4   40 1
    12    5    6 1
    13    5   45 1
    14    5   76 1
    15    6   11 1
    16    6    7 1
    17    6   46 1
    18    7    8 1
    19    7   47 1
    20    8   22 1
    21    8    9 2
    22    9   10 1
    23    9   12 1
    24   10   11 2
    25   10   48 1
    26   11   49 1
    27   12   17 ar
    28   12   13 ar
    29   13   14 ar
    30   13   21 1
    31   14   15 ar
    32   14   50 1
    33   15   16 ar
    34   15   51 1
    35   16   17 ar
    36   16   20 1
    37   17   18 1
    38   18   19 1
    39   19   52 1
    40   19   53 1
    41   19   54 1
    42   20   55 1
    43   21   22 1
    44   22   23 2
    45   23   24 1
    46   23   56 1
    47   24   29 ar
    48   24   25 ar
    49   25   26 ar
    50   25   57 1
    51   26   27 ar
    52   26   58 1
    53   27   28 ar
    54   27   38 1
    55   28   29 ar
    56   28   59 1
    57   29   30 1
    58   30   31 2
    59   30   32 am
    60   32   37 1
    61   32   33 1
    62   33   34 1
    63   33   60 1
    64   33   61 1
    65   34   35 1
    66   34   62 1
    67   34   63 1
    68   35   36 1
    69   35   64 1
    70   35   65 1
    71   36   37 1
    72   36   66 1
    73   36   67 1
    74   37   68 1
    75   37   69 1
    76   39   70 1
    77   39   71 1
    78   39   72 1
    79   40   73 1
    80   40   74 1
    81   40   75 1
@<TRIPOS>MOLECULE
CHEMBL231967__4
   75    80     0     0     0
SMALL
USER_CHARGES

@<TRIPOS>ATOM
      1 C1          0.6752    0.9919   -2.4888 C.3       1 <0>        -0.1240
      2 C2          0.8397   -0.4669   -2.8292 C.2       1 <0>        -0.0957
      3 C3          1.0344   -0.7946   -4.0704 C.2       1 <0>        -0.1463
      4 C4          1.2042   -2.2160   -4.5246 C.3       1 <0>         0.1426
      5 N1          1.5662   -3.0697   -3.3862 N.3       1 <0>        -0.6628
      6 C5          0.6175   -2.8804   -2.2789 C.3       1 <0>         0.1179
      7 C6          0.7769   -1.4729   -1.7164 C.3       1 <0>         0.0136
      8 C7         -0.3584   -1.1405   -0.7888 C.2       1 <0>        -0.1117
      9 C8         -1.6122   -1.6622   -1.0265 C.2       1 <0>         0.0039
     10 C9         -1.8243   -2.5712   -2.1581 C.2       1 <0>        -0.1414
     11 C10        -0.7818   -3.1294   -2.7643 C.2       1 <0>        -0.1567
     12 C11        -2.7095   -1.2835   -0.1196 C.ar      1 <0>        -0.1257
     13 C12        -2.4248   -0.4368    0.9637 C.ar      1 <0>         0.1322
     14 C13        -3.4471   -0.0687    1.8255 C.ar      1 <0>        -0.1263
     15 C14        -4.7327   -0.5327    1.6204 C.ar      1 <0>        -0.0880
     16 C15        -5.0192   -1.3716    0.5536 C.ar      1 <0>         0.0681
     17 C16        -4.0092   -1.7525   -0.3215 C.ar      1 <0>         0.1240
     18 O1         -4.2848   -2.5749   -1.3677 O.3       1 <0>        -0.3233
     19 C17        -4.1643   -3.9801   -1.1375 C.3       1 <0>         0.0326
     20 O2         -6.2891   -1.8221    0.3643 O.3       1 <0>        -0.4863
     21 O3         -1.1668    0.0145    1.1679 O.3       1 <0>        -0.2189
     22 C18        -0.1642   -0.2999    0.3236 C.2       1 <0>         0.1295
     23 C19         1.0802    0.2131    0.5551 C.2       1 <0>        -0.1808
     24 C20         1.2754    1.2115    1.6047 C.ar      1 <0>         0.0098
     25 C21         0.2177    2.0456    1.9922 C.ar      1 <0>        -0.0847
     26 C22         0.4082    2.9830    2.9806 C.ar      1 <0>        -0.1277
     27 C23         1.6450    3.1129    3.6026 C.ar      1 <0>         0.0875
     28 C24         2.7014    2.3043    3.2386 C.ar      1 <0>        -0.1218
     29 C25         2.5319    1.3400    2.2418 C.ar      1 <0>        -0.1038
     30 C26         3.6527    0.4699    1.8535 C.2       1 <0>         0.5688
     31 O4          3.9334    0.3276    0.6784 O.2       1 <0>        -0.5261
     32 N2          4.3685   -0.1695    2.7996 N.am      1 <0>        -0.6045
     33 C27         3.9671   -0.1076    4.2116 C.3       1 <0>         0.0995
     34 C28         3.8439   -1.5356    4.7524 C.3       1 <0>        -0.1356
     35 C29         5.1546   -2.2856    4.5039 C.3       1 <0>        -0.1212
     36 C30         5.4242   -2.3604    2.9993 C.3       1 <0>        -0.1351
     37 C31         5.5617   -0.9468    2.4379 C.3       1 <0>         0.1104
     38 F1          1.8134    4.0394    4.5713 F         1 <0>        -0.1364
     39 C32        -0.1075   -2.7137   -5.1351 C.3       1 <0>        -0.1867
     40 C33         2.3096   -2.2826   -5.5804 C.3       1 <0>        -0.1346
     41 H1          1.6512    1.4272   -2.2739 H         1 <0>         0.0728
     42 H2          0.2228    1.5131   -3.3324 H         1 <0>         0.0608
     43 H3          0.0328    1.0907   -1.6138 H         1 <0>         0.0627
     44 H4          1.0757   -0.0089   -4.8103 H         1 <0>         0.1135
     45 H5          1.6119   -4.0393   -3.6615 H         1 <0>         0.3482
     46 H6          0.8499   -3.5940   -1.4884 H         1 <0>         0.0960
     47 H7          1.7045   -1.4228   -1.1460 H         1 <0>         0.1058
     48 H8         -2.8253   -2.7838   -2.5032 H         1 <0>         0.1505
     49 H9         -0.9399   -3.7773   -3.6138 H         1 <0>         0.1364
     50 H10        -3.2378    0.5838    2.6603 H         1 <0>         0.1481
     51 H11        -5.5218   -0.2391    2.2968 H         1 <0>         0.1491
     52 H12        -4.8481   -4.2781   -0.3427 H         1 <0>         0.0550
     53 H13        -4.4117   -4.5205   -2.0512 H         1 <0>         0.0994
     54 H14        -3.1411   -4.2136   -0.8430 H         1 <0>         0.0517
     55 H15        -6.8301   -1.2495   -0.1964 H         1 <0>         0.3942
     56 H16         1.9199   -0.1189   -0.0373 H         1 <0>         0.1688
     57 H17        -0.7465    1.9524    1.5147 H         1 <0>         0.1447
     58 H18        -0.4096    3.6238    3.2757 H         1 <0>         0.1401
     59 H19         3.6582    2.4132    3.7274 H         1 <0>         0.1403
     60 H20         4.7204    0.4355    4.7822 H         1 <0>         0.0721
     61 H21         3.0058    0.3994    4.2963 H         1 <0>         0.0902
     62 H22         3.6407   -1.5030    5.8227 H         1 <0>         0.0773
     63 H23         3.0288   -2.0487    4.2422 H         1 <0>         0.0676
     64 H24         5.9732   -1.7583    4.9937 H         1 <0>         0.0655
     65 H25         5.0783   -3.2944    4.9097 H         1 <0>         0.0668
     66 H26         6.3457   -2.9150    2.8219 H         1 <0>         0.0773
     67 H27         4.5941   -2.8658    2.5056 H         1 <0>         0.0671
     68 H28         5.6523   -0.9934    1.3527 H         1 <0>         0.0955
     69 H29         6.4480   -0.4736    2.8607 H         1 <0>         0.0693
     70 H30        -0.1886   -2.3573   -6.1620 H         1 <0>         0.0616
     71 H31        -0.1217   -3.8036   -5.1265 H         1 <0>         0.0588
     72 H32        -0.9466   -2.3348   -4.5516 H         1 <0>         0.0755
     73 H33         3.2446   -1.9234   -5.1507 H         1 <0>         0.0658
     74 H34         2.4343   -3.3137   -5.9113 H         1 <0>         0.0564
     75 H35         2.0373   -1.6584   -6.4314 H         1 <0>         0.0613
@<TRIPOS>BOND
     1    1    2 1
     2    1   41 1
     3    1   42 1
     4    1   43 1
     5    2    7 1
     6    2    3 2
     7    3    4 1
     8    3   44 1
     9    4    5 1
    10    4   39 1
    11    4   40 1
    12    5    6 1
    13    5   45 1
    14    6   11 1
    15    6    7 1
    16    6   46 1
    17    7    8 1
    18    7   47 1
    19    8   22 1
    20    8    9 2
    21    9   10 1
    22    9   12 1
    23   10   11 2
    24   10   48 1
    25   11   49 1
    26   12   17 ar
    27   12   13 ar
    28   13   14 ar
    29   13   21 1
    30   14   15 ar
    31   14   50 1
    32   15   16 ar
    33   15   51 1
    34   16   17 ar
    35   16   20 1
    36   17   18 1
    37   18   19 1
    38   19   52 1
    39   19   53 1
    40   19   54 1
    41   20   55 1
    42   21   22 1
    43   22   23 2
    44   23   24 1
    45   23   56 1
    46   24   29 ar
    47   24   25 ar
    48   25   26 ar
    49   25   57 1
    50   26   27 ar
    51   26   58 1
    52   27   28 ar
    53   27   38 1
    54   28   29 ar
    55   28   59 1
    56   29   30 1
    57   30   31 2
    58   30   32 am
    59   32   37 1
    60   32   33 1
    61   33   34 1
    62   33   60 1
    63   33   61 1
    64   34   35 1
    65   34   62 1
    66   34   63 1
    67   35   36 1
    68   35   64 1
    69   35   65 1
    70   36   37 1
    71   36   66 1
    72   36   67 1
    73   37   68 1
    74   37   69 1
    75   39   70 1
    76   39   71 1
    77   39   72 1
    78   40   73 1
    79   40   74 1
    80   40   75 1
@<TRIPOS>MOLECULE
CHEMBL231967__5
   76    81     0     0     0
SMALL
USER_CHARGES

@<TRIPOS>ATOM
      1 C1          0.7211    0.7061   -2.3022 C.3       1 <0>        -0.1349
      2 C2          0.8167   -0.7929   -2.4239 C.2       1 <0>        -0.0752
      3 C3          0.9832   -1.3122   -3.6031 C.2       1 <0>        -0.1831
      4 C4          1.0852   -2.7924   -3.8352 C.3       1 <0>         0.1029
      5 N1          1.4476   -3.4782   -2.5895 N.4       1 <0>        -0.4973
      6 C5          0.5048   -3.0901   -1.5314 C.3       1 <0>         0.0763
      7 C6          0.7214   -1.6237   -1.1758 C.3       1 <0>        -0.0227
      8 C7         -0.3992   -1.1175   -0.3105 C.2       1 <0>        -0.1041
      9 C8         -1.6728   -1.6183   -0.4764 C.2       1 <0>         0.0036
     10 C9         -1.9219   -2.6706   -1.4675 C.2       1 <0>        -0.0699
     11 C10        -0.9028   -3.3517   -1.9844 C.2       1 <0>        -0.2079
     12 C11        -2.7529   -1.0715    0.3628 C.ar      1 <0>        -0.1394
     13 C12        -2.4339   -0.0892    1.3140 C.ar      1 <0>         0.1371
     14 C13        -3.4395    0.4378    2.1104 C.ar      1 <0>        -0.1227
     15 C14        -4.7422   -0.0023    1.9703 C.ar      1 <0>        -0.0757
     16 C15        -5.0628   -0.9746    1.0345 C.ar      1 <0>         0.0762
     17 C16        -4.0700   -1.5148    0.2261 C.ar      1 <0>         0.1256
     18 O1         -4.3788   -2.4689   -0.6911 O.3       1 <0>        -0.3256
     19 C17        -4.3118   -3.8295   -0.2595 C.3       1 <0>         0.0279
     20 O2         -6.3494   -1.3992    0.9078 O.3       1 <0>        -0.4840
     21 O3         -1.1592    0.3387    1.4553 O.3       1 <0>        -0.2118
     22 C18        -0.1706   -0.1340    0.6705 C.2       1 <0>         0.1133
     23 C19         1.0936    0.3566    0.8325 C.2       1 <0>        -0.1580
     24 C20         1.3604    1.3661    1.8554 C.ar      1 <0>        -0.0120
     25 C21         0.3407    2.2297    2.2787 C.ar      1 <0>        -0.0786
     26 C22         0.5985    3.1774    3.2417 C.ar      1 <0>        -0.1291
     27 C23         1.8659    3.2886    3.8026 C.ar      1 <0>         0.1038
     28 C24         2.8858    2.4508    3.4024 C.ar      1 <0>        -0.1245
     29 C25         2.6481    1.4757    2.4305 C.ar      1 <0>        -0.0965
     30 C26         3.7299    0.5746    2.0040 C.2       1 <0>         0.5719
     31 O4          3.9865    0.4493    0.8214 O.2       1 <0>        -0.5399
     32 N2          4.4367   -0.1122    2.9234 N.am      1 <0>        -0.6008
     33 C27         4.0635   -0.0640    4.3436 C.3       1 <0>         0.0972
     34 C28         3.8935   -1.4970    4.8577 C.3       1 <0>        -0.1340
     35 C29         5.1685   -2.2928    4.5695 C.3       1 <0>        -0.1244
     36 C30         5.4077   -2.3467    3.0588 C.3       1 <0>        -0.1322
     37 C31         5.5913   -0.9282    2.5236 C.3       1 <0>         0.1085
     38 F1          2.1004    4.2256    4.7472 F         1 <0>        -0.1299
     39 C32        -0.2620   -3.3214   -4.3314 C.3       1 <0>        -0.1845
     40 C33         2.1547   -3.0668   -4.8943 C.3       1 <0>        -0.1727
     41 H1          1.7178    1.1232   -2.1580 H         1 <0>         0.0890
     42 H2          0.2833    1.1173   -3.2118 H         1 <0>         0.0781
     43 H3          0.0932    0.9621   -1.4488 H         1 <0>         0.0767
     44 H4          1.0517   -0.6503   -4.4538 H         1 <0>         0.1536
     45 H5          1.4046   -4.4765   -2.7297 H         1 <0>         0.4326
     46 H6          0.7062   -3.6889   -0.6432 H         1 <0>         0.1503
     47 H7          1.6525   -1.5274   -0.6174 H         1 <0>         0.1288
     48 H8         -2.9310   -2.8909   -1.7830 H         1 <0>         0.1731
     49 H9         -1.0863   -4.1076   -2.7337 H         1 <0>         0.1652
     50 H10        -3.2037    1.1951    2.8434 H         1 <0>         0.1532
     51 H11        -5.5178    0.4146    2.5957 H         1 <0>         0.1556
     52 H12        -3.2978   -4.0568    0.0695 H         1 <0>         0.0480
     53 H13        -5.0052   -3.9829    0.5674 H         1 <0>         0.0621
     54 H14        -4.5814   -4.4867   -1.0863 H         1 <0>         0.1041
     55 H15        -6.8694   -0.8931    0.2687 H         1 <0>         0.3996
     56 H16         1.8963   -0.0013    0.2047 H         1 <0>         0.1622
     57 H17        -0.6468    2.1513    1.8487 H         1 <0>         0.1498
     58 H18        -0.1901    3.8410    3.5646 H         1 <0>         0.1447
     59 H19         3.8670    2.5453    3.8438 H         1 <0>         0.1435
     60 H20         4.8481    0.4370    4.9107 H         1 <0>         0.0767
     61 H21         3.1249    0.4786    4.4566 H         1 <0>         0.0905
     62 H22         3.7110   -1.4788    5.9322 H         1 <0>         0.0810
     63 H23         3.0494   -1.9669    4.3528 H         1 <0>         0.0651
     64 H24         6.0162   -1.8085    5.0543 H         1 <0>         0.0691
     65 H25         5.0595   -3.3060    4.9563 H         1 <0>         0.0693
     66 H26         6.3030   -2.9333    2.8530 H         1 <0>         0.0789
     67 H27         4.5494   -2.8086    2.5709 H         1 <0>         0.0617
     68 H28         5.6603   -0.9556    1.4361 H         1 <0>         0.0933
     69 H29         6.5032   -0.4993    2.9390 H         1 <0>         0.0737
     70 H30        -0.3547   -3.1330   -5.4010 H         1 <0>         0.1026
     71 H31        -0.3223   -4.3937   -4.1448 H         1 <0>         0.0831
     72 H32        -1.0687   -2.8146   -3.8019 H         1 <0>         0.1043
     73 H33         3.1152   -2.6851   -4.5481 H         1 <0>         0.0835
     74 H34         2.2305   -4.1407   -5.0644 H         1 <0>         0.0841
     75 H35         1.8804   -2.5700   -5.8249 H         1 <0>         0.1082
     76 H36         2.3836   -3.2150   -2.3200 H         1 <0>         0.4319
@<TRIPOS>BOND
     1    1    2 1
     2    1   41 1
     3    1   42 1
     4    1   43 1
     5    2    7 1
     6    2    3 2
     7    3    4 1
     8    3   44 1
     9    4    5 1
    10    4   39 1
    11    4   40 1
    12    5    6 1
    13    5   45 1
    14    5   76 1
    15    6   11 1
    16    6    7 1
    17    6   46 1
    18    7    8 1
    19    7   47 1
    20    8   22 1
    21    8    9 2
    22    9   10 1
    23    9   12 1
    24   10   11 2
    25   10   48 1
    26   11   49 1
    27   12   17 ar
    28   12   13 ar
    29   13   14 ar
    30   13   21 1
    31   14   15 ar
    32   14   50 1
    33   15   16 ar
    34   15   51 1
    35   16   17 ar
    36   16   20 1
    37   17   18 1
    38   18   19 1
    39   19   52 1
    40   19   53 1
    41   19   54 1
    42   20   55 1
    43   21   22 1
    44   22   23 2
    45   23   24 1
    46   23   56 1
    47   24   29 ar
    48   24   25 ar
    49   25   26 ar
    50   25   57 1
    51   26   27 ar
    52   26   58 1
    53   27   28 ar
    54   27   38 1
    55   28   29 ar
    56   28   59 1
    57   29   30 1
    58   30   31 2
    59   30   32 am
    60   32   37 1
    61   32   33 1
    62   33   34 1
    63   33   60 1
    64   33   61 1
    65   34   35 1
    66   34   62 1
    67   34   63 1
    68   35   36 1
    69   35   64 1
    70   35   65 1
    71   36   37 1
    72   36   66 1
    73   36   67 1
    74   37   68 1
    75   37   69 1
    76   39   70 1
    77   39   71 1
    78   39   72 1
    79   40   73 1
    80   40   74 1
    81   40   75 1
@<TRIPOS>MOLECULE
CHEMBL231967__6
   75    80     0     0     0
SMALL
USER_CHARGES

@<TRIPOS>ATOM
      1 C1          0.2484    2.2388   -0.8146 C.3       1 <0>        -0.1195
      2 C2         -0.0205    0.7504   -0.7928 C.2       1 <0>        -0.1052
      3 C3          0.0596    0.1127   -1.9324 C.2       1 <0>        -0.1712
      4 C4         -0.2635   -1.3431   -2.0881 C.3       1 <0>         0.1436
      5 N1         -1.1137   -1.7917   -0.9746 N.3       1 <0>        -0.6603
      6 C5         -0.5135   -1.4546    0.3047 C.3       1 <0>         0.1206
      7 C6         -0.3836    0.0680    0.4688 C.3       1 <0>        -0.0305
      8 C7          0.4492    0.2786    1.6858 C.2       1 <0>        -0.1001
      9 C8          0.0322   -0.4412    2.8173 C.2       1 <0>        -0.0129
     10 C9         -1.0750   -1.3949    2.6785 C.2       1 <0>        -0.1228
     11 C10        -1.3472   -1.9237    1.4753 C.2       1 <0>        -0.1176
     12 C11         0.7235   -0.1800    4.0878 C.ar      1 <0>        -0.1198
     13 C12         1.6379    0.8900    4.1448 C.ar      1 <0>         0.1275
     14 C13         2.2867    1.1879    5.3295 C.ar      1 <0>        -0.1278
     15 C14         2.0531    0.4271    6.4597 C.ar      1 <0>        -0.0899
     16 C15         1.1718   -0.6411    6.4129 C.ar      1 <0>         0.0643
     17 C16         0.5076   -0.9524    5.2302 C.ar      1 <0>         0.1250
     18 O1         -0.3310   -2.0214    5.2097 O.3       1 <0>        -0.3254
     19 C17         0.2398   -3.2874    4.8726 C.3       1 <0>         0.0400
     20 O2          0.9533   -1.3919    7.5271 O.3       1 <0>        -0.4869
     21 O3          1.8961    1.6130    3.0234 O.3       1 <0>        -0.2334
     22 C18         1.6225    1.0149    1.8317 C.2       1 <0>         0.1133
     23 C19         2.5704    1.0791    0.8576 C.2       1 <0>        -0.1358
     24 C20         3.6735    2.0311    0.9729 C.ar      1 <0>        -0.0051
     25 C21         3.5750    3.1247    1.8441 C.ar      1 <0>        -0.0762
     26 C22         4.6167    4.0169    1.9478 C.ar      1 <0>        -0.1319
     27 C23         5.7723    3.8449    1.1939 C.ar      1 <0>         0.0953
     28 C24         5.8930    2.7770    0.3293 C.ar      1 <0>        -0.1271
     29 C25         4.8517    1.8532    0.2104 C.ar      1 <0>        -0.0952
     30 C26         4.9768    0.7085   -0.7050 C.2       1 <0>         0.5661
     31 O4          4.1247    0.5096   -1.5502 O.2       1 <0>        -0.5226
     32 N2          6.0353   -0.1200   -0.6072 N.am      1 <0>        -0.6029
     33 C27         7.1048    0.1434    0.3652 C.3       1 <0>         0.0963
     34 C28         7.3086   -1.1080    1.2249 C.3       1 <0>        -0.1356
     35 C29         7.5689   -2.3105    0.3148 C.3       1 <0>        -0.1212
     36 C30         6.3565   -2.5389   -0.5908 C.3       1 <0>        -0.1352
     37 C31         6.1388   -1.3070   -1.4669 C.3       1 <0>         0.1112
     38 F1          6.7852    4.7314    1.3089 F         1 <0>        -0.1346
     39 C32         1.0246   -2.1585   -2.1390 C.3       1 <0>        -0.1289
     40 C33        -1.0289   -1.5393   -3.4012 C.3       1 <0>        -0.1396
     41 H1          1.3072    2.4195   -0.6293 H         1 <0>         0.0744
     42 H2         -0.0240    2.6429   -1.7896 H         1 <0>         0.0635
     43 H3         -0.3444    2.7264   -0.0407 H         1 <0>         0.0583
     44 H4          0.3747    0.6638   -2.8022 H         1 <0>         0.1136
     45 H5         -2.0478   -1.4194   -1.0598 H         1 <0>         0.3473
     46 H6          0.4709   -1.9024    0.4035 H         1 <0>         0.0935
     47 H7         -1.4058    0.4242    0.7333 H         1 <0>         0.0874
     48 H8         -1.6903   -1.6599    3.5254 H         1 <0>         0.1401
     49 H9         -2.1244   -2.6518    1.3391 H         1 <0>         0.1380
     50 H10         2.9774    2.0173    5.3748 H         1 <0>         0.1461
     51 H11         2.5601    0.6668    7.3820 H         1 <0>         0.1473
     52 H12         1.0174   -3.5389    5.5938 H         1 <0>         0.0523
     53 H13        -0.5361   -4.0527    4.8930 H         1 <0>         0.0986
     54 H14         0.6734   -3.2360    3.8739 H         1 <0>         0.0466
     55 H15         0.2275   -1.0723    8.0806 H         1 <0>         0.3936
     56 H16         2.5077    0.4266   -0.0007 H         1 <0>         0.1579
     57 H17         2.6813    3.2670    2.4336 H         1 <0>         0.1523
     58 H18         4.5363    4.8583    2.6201 H         1 <0>         0.1419
     59 H19         6.7945    2.6523   -0.2523 H         1 <0>         0.1415
     60 H20         8.0289    0.3785   -0.1628 H         1 <0>         0.0737
     61 H21         6.8216    0.9818    1.0016 H         1 <0>         0.0915
     62 H22         8.1628   -0.9603    1.8857 H         1 <0>         0.0777
     63 H23         6.4142   -1.2896    1.8209 H         1 <0>         0.0670
     64 H24         8.4491   -2.1179   -0.2986 H         1 <0>         0.0660
     65 H25         7.7387   -3.1977    0.9248 H         1 <0>         0.0673
     66 H26         6.5329   -3.4095   -1.2224 H         1 <0>         0.0781
     67 H27         5.4710   -2.7070    0.0222 H         1 <0>         0.0659
     68 H28         5.2185   -1.4252   -2.0389 H         1 <0>         0.0946
     69 H29         6.9824   -1.1928   -2.1476 H         1 <0>         0.0698
     70 H30         1.5845   -2.0114   -1.2154 H         1 <0>         0.0509
     71 H31         0.7816   -3.2150   -2.2522 H         1 <0>         0.0641
     72 H32         1.6283   -1.8317   -2.9857 H         1 <0>         0.0639
     73 H33        -0.4112   -1.2061   -4.2351 H         1 <0>         0.0648
     74 H34        -1.2702   -2.5948   -3.5268 H         1 <0>         0.0670
     75 H35        -1.9497   -0.9567   -3.3755 H         1 <0>         0.0552
@<TRIPOS>BOND
     1    1    2 1
     2    1   41 1
     3    1   42 1
     4    1   43 1
     5    2    7 1
     6    2    3 2
     7    3    4 1
     8    3   44 1
     9    4    5 1
    10    4   39 1
    11    4   40 1
    12    5    6 1
    13    5   45 1
    14    6   11 1
    15    6    7 1
    16    6   46 1
    17    7    8 1
    18    7   47 1
    19    8   22 1
    20    8    9 2
    21    9   10 1
    22    9   12 1
    23   10   11 2
    24   10   48 1
    25   11   49 1
    26   12   17 ar
    27   12   13 ar
    28   13   14 ar
    29   13   21 1
    30   14   15 ar
    31   14   50 1
    32   15   16 ar
    33   15   51 1
    34   16   17 ar
    35   16   20 1
    36   17   18 1
    37   18   19 1
    38   19   52 1
    39   19   53 1
    40   19   54 1
    41   20   55 1
    42   21   22 1
    43   22   23 2
    44   23   24 1
    45   23   56 1
    46   24   29 ar
    47   24   25 ar
    48   25   26 ar
    49   25   57 1
    50   26   27 ar
    51   26   58 1
    52   27   28 ar
    53   27   38 1
    54   28   29 ar
    55   28   59 1
    56   29   30 1
    57   30   31 2
    58   30   32 am
    59   32   37 1
    60   32   33 1
    61   33   34 1
    62   33   60 1
    63   33   61 1
    64   34   35 1
    65   34   62 1
    66   34   63 1
    67   35   36 1
    68   35   64 1
    69   35   65 1
    70   36   37 1
    71   36   66 1
    72   36   67 1
    73   37   68 1
    74   37   69 1
    75   39   70 1
    76   39   71 1
    77   39   72 1
    78   40   73 1
    79   40   74 1
    80   40   75 1
@<TRIPOS>MOLECULE
CHEMBL231967__7
   76    81     0     0     0
SMALL
USER_CHARGES

@<TRIPOS>ATOM
      1 C1          0.2458    2.2390   -0.8058 C.3       1 <0>        -0.1298
      2 C2         -0.0230    0.7507   -0.7886 C.2       1 <0>        -0.0753
      3 C3          0.0563    0.1145   -1.9296 C.2       1 <0>        -0.1806
      4 C4         -0.2717   -1.3393   -2.0869 C.3       1 <0>         0.1010
      5 N1         -1.1300   -1.7905   -0.9819 N.4       1 <0>        -0.4877
      6 C5         -0.5126   -1.4616    0.2920 C.3       1 <0>         0.0529
      7 C6         -0.3862    0.0596    0.4691 C.3       1 <0>        -0.0075
      8 C7          0.4436    0.2684    1.6882 C.2       1 <0>        -0.0981
      9 C8          0.0348   -0.4641    2.8148 C.2       1 <0>        -0.0126
     10 C9         -1.0644   -1.4255    2.6702 C.2       1 <0>        -0.0405
     11 C10        -1.3367   -1.9455    1.4642 C.2       1 <0>        -0.2063
     12 C11         0.7260   -0.2083    4.0865 C.ar      1 <0>        -0.1358
     13 C12         1.6250    0.8743    4.1537 C.ar      1 <0>         0.1345
     14 C13         2.2728    1.1677    5.3399 C.ar      1 <0>        -0.1245
     15 C14         2.0540    0.3903    6.4620 C.ar      1 <0>        -0.0767
     16 C15         1.1877   -0.6897    6.4048 C.ar      1 <0>         0.0707
     17 C16         0.5251   -0.9973    5.2202 C.ar      1 <0>         0.1276
     18 O1         -0.2969   -2.0791    5.1886 O.3       1 <0>        -0.3279
     19 C17         0.2929   -3.3318    4.8351 C.3       1 <0>         0.0371
     20 O2          0.9817   -1.4557    7.5110 O.3       1 <0>        -0.4851
     21 O3          1.8687    1.6130    3.0391 O.3       1 <0>        -0.2267
     22 C18         1.6078    1.0177    1.8429 C.2       1 <0>         0.0904
     23 C19         2.5611    1.0977    0.8756 C.2       1 <0>        -0.1084
     24 C20         3.6518    2.0625    1.0024 C.ar      1 <0>        -0.0263
     25 C21         3.5346    3.1504    1.8784 C.ar      1 <0>        -0.0677
     26 C22         4.5647    4.0547    1.9929 C.ar      1 <0>        -0.1333
     27 C23         5.7269    3.9006    1.2452 C.ar      1 <0>         0.1117
     28 C24         5.8659    2.8387    0.3760 C.ar      1 <0>        -0.1298
     29 C25         4.8366    1.9029    0.2462 C.ar      1 <0>        -0.0876
     30 C26         4.9812    0.7644   -0.6741 C.2       1 <0>         0.5687
     31 O4          4.1375    0.5603   -1.5264 O.2       1 <0>        -0.5357
     32 N2          6.0485   -0.0524   -0.5731 N.am      1 <0>        -0.5989
     33 C27         7.1082    0.2184    0.4078 C.3       1 <0>         0.0932
     34 C28         7.3205   -1.0348    1.2630 C.3       1 <0>        -0.1348
     35 C29         7.6006   -2.2298    0.3488 C.3       1 <0>        -0.1241
     36 C30         6.3970   -2.4676   -0.5661 C.3       1 <0>        -0.1335
     37 C31         6.1713   -1.2340   -1.4378 C.3       1 <0>         0.1104
     38 F1          6.7282    4.7988    1.3709 F         1 <0>        -0.1280
     39 C32         1.0123   -2.1605   -2.1385 C.3       1 <0>        -0.1681
     40 C33        -1.0331   -1.5294   -3.4040 C.3       1 <0>        -0.1728
     41 H1          1.3047    2.4191   -0.6203 H         1 <0>         0.0904
     42 H2         -0.0269    2.6462   -1.7794 H         1 <0>         0.0800
     43 H3         -0.3466    2.7242   -0.0301 H         1 <0>         0.0735
     44 H4          0.3733    0.6657   -2.7993 H         1 <0>         0.1553
     45 H5         -2.0318   -1.3349   -1.0546 H         1 <0>         0.4298
     46 H6          0.4725   -1.9085    0.3787 H         1 <0>         0.1473
     47 H7         -1.4100    0.4117    0.7334 H         1 <0>         0.1185
     48 H8         -1.6736   -1.7034    3.5173 H         1 <0>         0.1608
     49 H9         -2.1083   -2.6787    1.3250 H         1 <0>         0.1564
     50 H10         2.9516    2.0062    5.3939 H         1 <0>         0.1514
     51 H11         2.5611    0.6254    7.3854 H         1 <0>         0.1537
     52 H12         0.7234   -3.2617    3.8362 H         1 <0>         0.0421
     53 H13         1.0760   -3.5798    5.5516 H         1 <0>         0.0589
     54 H14        -0.4708   -4.1094    4.8479 H         1 <0>         0.1018
     55 H15         0.2526   -1.1525    8.0692 H         1 <0>         0.3990
     56 H16         2.5120    0.4483    0.0140 H         1 <0>         0.1555
     57 H17         2.6357    3.2787    2.4631 H         1 <0>         0.1537
     58 H18         4.4699    4.8916    2.6690 H         1 <0>         0.1465
     59 H19         6.7723    2.7279   -0.2006 H         1 <0>         0.1453
     60 H20         8.0332    0.4666   -0.1126 H         1 <0>         0.0782
     61 H21         6.8112    1.0504    1.0463 H         1 <0>         0.0922
     62 H22         8.1685   -0.8806    1.9302 H         1 <0>         0.0813
     63 H23         6.4242   -1.2295    1.8519 H         1 <0>         0.0655
     64 H24         8.4827   -2.0243   -0.2576 H         1 <0>         0.0691
     65 H25         7.7764   -3.1180    0.9558 H         1 <0>         0.0697
     66 H26         6.5877   -3.3331   -1.2006 H         1 <0>         0.0795
     67 H27         5.5094   -2.6487    0.0401 H         1 <0>         0.0623
     68 H28         5.2563   -1.3599   -2.0166 H         1 <0>         0.0922
     69 H29         7.0182   -1.1068   -2.1121 H         1 <0>         0.0737
     70 H30         1.5727   -2.0171   -1.2147 H         1 <0>         0.0772
     71 H31         0.7642   -3.2158   -2.2529 H         1 <0>         0.0833
     72 H32         1.6175   -1.8357   -2.9848 H         1 <0>         0.1119
     73 H33        -0.4104   -1.1976   -4.2348 H         1 <0>         0.1098
     74 H34        -1.2790   -2.5835   -3.5326 H         1 <0>         0.0844
     75 H35        -1.9512   -0.9423   -3.3809 H         1 <0>         0.0836
     76 H36        -1.2678   -2.7907   -1.0516 H         1 <0>         0.4318
@<TRIPOS>BOND
     1    1    2 1
     2    1   41 1
     3    1   42 1
     4    1   43 1
     5    2    7 1
     6    2    3 2
     7    3    4 1
     8    3   44 1
     9    4    5 1
    10    4   39 1
    11    4   40 1
    12    5    6 1
    13    5   45 1
    14    5   76 1
    15    6   11 1
    16    6    7 1
    17    6   46 1
    18    7    8 1
    19    7   47 1
    20    8   22 1
    21    8    9 2
    22    9   10 1
    23    9   12 1
    24   10   11 2
    25   10   48 1
    26   11   49 1
    27   12   17 ar
    28   12   13 ar
    29   13   14 ar
    30   13   21 1
    31   14   15 ar
    32   14   50 1
    33   15   16 ar
    34   15   51 1
    35   16   17 ar
    36   16   20 1
    37   17   18 1
    38   18   19 1
    39   19   52 1
    40   19   53 1
    41   19   54 1
    42   20   55 1
    43   21   22 1
    44   22   23 2
    45   23   24 1
    46   23   56 1
    47   24   29 ar
    48   24   25 ar
    49   25   26 ar
    50   25   57 1
    51   26   27 ar
    52   26   58 1
    53   27   28 ar
    54   27   38 1
    55   28   29 ar
    56   28   59 1
    57   29   30 1
    58   30   31 2
    59   30   32 am
    60   32   37 1
    61   32   33 1
    62   33   34 1
    63   33   60 1
    64   33   61 1
    65   34   35 1
    66   34   62 1
    67   34   63 1
    68   35   36 1
    69   35   64 1
    70   35   65 1
    71   36   37 1
    72   36   66 1
    73   36   67 1
    74   37   68 1
    75   37   69 1
    76   39   70 1
    77   39   71 1
    78   39   72 1
    79   40   73 1
    80   40   74 1
    81   40   75 1
@<TRIPOS>MOLECULE
CHEMBL312399
   57    61     0     0     0
SMALL
USER_CHARGES

@<TRIPOS>ATOM
      1 C1          0.1057    1.5974   -0.0371 C.3       1 <0>        -0.1483
      2 C2          0.0516    0.0688    0.0012 C.3       1 <0>        -0.0124
      3 C3         -1.4252   -0.3576   -0.0212 C.3       1 <0>        -0.0337
      4 C4         -1.9258   -1.1611    1.1573 C.2       1 <0>        -0.2169
      5 C5         -3.1805   -1.6741    1.4753 C.2       1 <0>         0.0698
      6 N1         -3.0977   -2.2987    2.6236 N.2       1 <0>        -0.2802
      7 N2         -1.7807   -2.2110    3.0904 N.pl3     1 <0>        -0.3218
      8 C6         -1.0547   -1.5049    2.1672 C.2       1 <0>         0.1192
      9 C7          0.3633   -1.1293    2.1298 C.2       1 <0>        -0.1268
     10 C8          0.8947   -0.4026    1.1664 C.2       1 <0>        -0.0479
     11 C9          2.3676   -0.0679    1.1706 C.3       1 <0>        -0.0837
     12 C10         2.9718   -0.5422   -0.1567 C.3       1 <0>        -0.1138
     13 C11         2.1704    0.0446   -1.3198 C.3       1 <0>        -0.1290
     14 C12         0.7259   -0.4565   -1.2667 C.3       1 <0>        -0.1090
     15 H1          0.7193   -1.5464   -1.2570 H         1 <0>         0.0801
     16 C13        -0.0344    0.0475   -2.4951 C.3       1 <0>         0.1071
     17 H2         -1.0893   -0.2101   -2.4004 H         1 <0>         0.1044
     18 C14         0.5394   -0.6063   -3.7537 C.3       1 <0>        -0.1489
     19 C15        -0.2992   -0.1997   -4.9671 C.3       1 <0>        -0.0850
     20 C16         0.2746   -0.8536   -6.2258 C.3       1 <0>        -0.1549
     21 C17         0.8280    0.0705   -7.3123 C.3       1 <0>        -0.1813
     22 C18        -0.4956   -0.6640   -7.5341 C.3       1 <0>        -0.1827
     23 O1          0.1026    1.4667   -2.5909 O.3       1 <0>        -0.5521
     24 C19        -1.2918   -2.7497    4.2880 C.ar      1 <0>         0.1486
     25 C20         0.0037   -3.2458    4.3495 C.ar      1 <0>        -0.1051
     26 C21         0.4837   -3.7759    5.5309 C.ar      1 <0>        -0.1303
     27 C22        -0.3260   -3.8129    6.6538 C.ar      1 <0>         0.0970
     28 C23        -1.6185   -3.3191    6.5944 C.ar      1 <0>        -0.1317
     29 C24        -2.1003   -2.7830    5.4165 C.ar      1 <0>        -0.0832
     30 F1          0.1455   -4.3319    7.8086 F         1 <0>        -0.1334
     31 H3          1.1158    1.9190   -0.2909 H         1 <0>         0.0602
     32 H4         -0.5927    1.9669   -0.7881 H         1 <0>         0.0888
     33 H5         -0.1676    1.9952    0.9402 H         1 <0>         0.0451
     34 H6         -2.0337    0.5436   -0.0959 H         1 <0>         0.0765
     35 H7         -1.5910   -0.9461   -0.9235 H         1 <0>         0.0729
     36 H8         -4.0730   -1.5736    0.8754 H         1 <0>         0.1903
     37 H9          0.9991   -1.4465    2.9431 H         1 <0>         0.1172
     38 H10         2.4994    1.0096    1.2702 H         1 <0>         0.0834
     39 H11         2.8579   -0.5770    2.0003 H         1 <0>         0.0742
     40 H12         4.0074   -0.2089   -0.2243 H         1 <0>         0.0704
     41 H13         2.9365   -1.6306   -0.2037 H         1 <0>         0.0649
     42 H14         2.1785    1.1324   -1.2521 H         1 <0>         0.0750
     43 H15         2.6247   -0.2608   -2.2624 H         1 <0>         0.0696
     44 H16         1.5687   -0.2777   -3.8968 H         1 <0>         0.0687
     45 H17         0.5161   -1.6904   -3.6428 H         1 <0>         0.0703
     46 H18        -1.3286   -0.5284   -4.8240 H         1 <0>         0.0643
     47 H19        -0.2760    0.8843   -5.0781 H         1 <0>         0.0707
     48 H20         0.7781   -1.8080   -6.0719 H         1 <0>         0.1012
     49 H21         0.7834    1.1443   -7.1305 H         1 <0>         0.0939
     50 H22         1.6960   -0.2758   -7.8734 H         1 <0>         0.0912
     51 H23        -0.4985   -1.4936   -8.2412 H         1 <0>         0.0924
     52 H24        -1.4111   -0.0735   -7.4982 H         1 <0>         0.0938
     53 H25         1.0171    1.7686   -2.6776 H         1 <0>         0.3700
     54 H26         0.6353   -3.2174    3.4739 H         1 <0>         0.1420
     55 H27         1.4911   -4.1621    5.5790 H         1 <0>         0.1470
     56 H28        -2.2485   -3.3492    7.4711 H         1 <0>         0.1469
     57 H29        -3.1067   -2.3935    5.3719 H         1 <0>         0.1445
@<TRIPOS>BOND
     1    1    2 1
     2    1   31 1
     3    1   32 1
     4    1   33 1
     5    2   10 1
     6    2   14 1
     7    2    3 1
     8    3    4 1
     9    3   34 1
    10    3   35 1
    11    4    8 2
    12    4    5 1
    13    5    6 2
    14    5   36 1
    15    6    7 1
    16    7    8 1
    17    7   24 1
    18    8    9 1
    19    9   10 2
    20    9   37 1
    21   10   11 1
    22   11   12 1
    23   11   38 1
    24   11   39 1
    25   12   13 1
    26   12   40 1
    27   12   41 1
    28   13   14 1
    29   13   42 1
    30   13   43 1
    31   14   15 1
    32   14   16 1
    33   16   17 1
    34   16   18 1
    35   16   23 1
    36   18   19 1
    37   18   44 1
    38   18   45 1
    39   19   20 1
    40   19   46 1
    41   19   47 1
    42   20   22 1
    43   20   21 1
    44   20   48 1
    45   21   22 1
    46   21   49 1
    47   21   50 1
    48   22   51 1
    49   22   52 1
    50   23   53 1
    51   24   29 ar
    52   24   25 ar
    53   25   26 ar
    54   25   54 1
    55   26   27 ar
    56   26   55 1
    57   27   28 ar
    58   27   30 1
    59   28   29 ar
    60   28   56 1
    61   29   57 1
@<TRIPOS>MOLECULE
CHEMBL247235
   60    64     0     0     0
SMALL
USER_CHARGES

@<TRIPOS>ATOM
      1 C1         -0.3267    0.6838    0.0516 C.ar      1 <0>        -0.1220
      2 C2          0.7152    1.5742    0.2323 C.ar      1 <0>        -0.1162
      3 C3          2.0218    1.1240    0.2036 C.ar      1 <0>        -0.1159
      4 C4          2.2866   -0.2165   -0.0053 C.ar      1 <0>        -0.0799
      5 C5          1.2447   -1.1070   -0.1851 C.ar      1 <0>        -0.1169
      6 C6         -0.0619   -0.6567   -0.1578 C.ar      1 <0>        -0.1198
      7 C7          3.7112   -0.7071   -0.0376 C.3       1 <0>        -0.0747
      8 C8          4.2327   -0.8535    1.3933 C.3       1 <0>        -0.0341
      9 C9          3.3254   -1.8216    2.1316 C.3       1 <0>        -0.1019
     10 C10         2.0517   -1.1391    2.6282 C.3       1 <0>        -0.1906
     11 C11         2.4730    0.0082    3.5257 C.2       1 <0>         0.3906
     12 O1          1.9960    0.1644    4.6303 O.2       1 <0>        -0.4582
     13 C12         3.4889    0.9188    2.9864 C.2       1 <0>        -0.2249
     14 C13         4.3008    0.5116    2.0085 C.2       1 <0>        -0.0248
     15 C14         5.3132    1.5056    1.4676 C.3       1 <0>        -0.1113
     16 C15         6.6922    0.8379    1.4414 C.3       1 <0>         0.1201
     17 N1          6.5666   -0.4639    0.7715 N.pl3     1 <0>        -0.9969
     18 C16         5.6418   -1.4583    1.3279 C.3       1 <0>         0.1277
     19 S1          7.4520   -0.8025   -0.5864 S.o2      1 <0>         2.6873
     20 O2          6.7462   -1.8160   -1.2891 O.2       1 <0>        -0.9485
     21 O3          7.7814    0.4467   -1.1783 O.2       1 <0>        -0.9504
     22 C17         8.9691   -1.5226   -0.0530 C.ar      1 <0>        -0.6826
     23 C18        10.0591   -0.7142    0.2144 C.ar      1 <0>        -0.0152
     24 C19        11.2499   -1.2730    0.6325 C.ar      1 <0>        -0.1342
     25 C20        11.3527   -2.6542    0.7851 C.ar      1 <0>         0.0187
     26 C21        10.2514   -3.4638    0.5143 C.ar      1 <0>        -0.1342
     27 C22         9.0639   -2.8939    0.1022 C.ar      1 <0>        -0.0150
     28 C23        12.6305   -3.2608    1.2338 C.ar      1 <0>        -0.0672
     29 C24        13.7301   -2.4507    1.5096 C.ar      1 <0>        -0.1010
     30 C25        14.9160   -3.0202    1.9271 C.ar      1 <0>        -0.1191
     31 C26        15.0142   -4.3923    2.0714 C.ar      1 <0>        -0.1077
     32 C27        13.9259   -5.2012    1.7985 C.ar      1 <0>        -0.1191
     33 C28        12.7333   -4.6419    1.3864 C.ar      1 <0>        -0.1010
     34 H1         -1.3478    1.0348    0.0785 H         1 <0>         0.1218
     35 H2          0.5083    2.6216    0.3955 H         1 <0>         0.1218
     36 H3          2.8359    1.8198    0.3441 H         1 <0>         0.1211
     37 H4          1.4516   -2.1543   -0.3487 H         1 <0>         0.1253
     38 H5         -0.8759   -1.3523   -0.2986 H         1 <0>         0.1237
     39 H6          3.7513   -1.6738   -0.5396 H         1 <0>         0.0907
     40 H7          4.3299    0.0090   -0.5783 H         1 <0>         0.0760
     41 H8          3.0533   -2.6358    1.4599 H         1 <0>         0.0863
     42 H9          3.8641   -2.2325    2.9854 H         1 <0>         0.0718
     43 H10         1.4817   -0.7571    1.7813 H         1 <0>         0.1258
     44 H11         1.4471   -1.8487    3.1930 H         1 <0>         0.0897
     45 H12         3.5888    1.9158    3.3895 H         1 <0>         0.1352
     46 H13         5.0310    1.8016    0.4572 H         1 <0>         0.0917
     47 H14         5.3443    2.3835    2.1129 H         1 <0>         0.0943
     48 H15         7.3931    1.4664    0.8920 H         1 <0>         0.1016
     49 H16         7.0480    0.6922    2.4613 H         1 <0>         0.0800
     50 H17         5.9705   -1.7258    2.3321 H         1 <0>         0.0804
     51 H18         5.6274   -2.3484    0.6989 H         1 <0>         0.1055
     52 H19         9.9785    0.3562    0.0954 H         1 <0>         0.1419
     53 H20        12.1005   -0.6409    0.8406 H         1 <0>         0.1367
     54 H21        10.3258   -4.5349    0.6306 H         1 <0>         0.1368
     55 H22         8.2082   -3.5200   -0.1033 H         1 <0>         0.1424
     56 H23        13.6548   -1.3793    1.3966 H         1 <0>         0.1279
     57 H24        15.7690   -2.3933    2.1412 H         1 <0>         0.1280
     58 H25        15.9442   -4.8338    2.3980 H         1 <0>         0.1265
     59 H26        14.0081   -6.2720    1.9125 H         1 <0>         0.1280
     60 H27        11.8828   -5.2740    1.1778 H         1 <0>         0.1279
@<TRIPOS>BOND
     1    1    6 ar
     2    1    2 ar
     3    1   34 1
     4    2    3 ar
     5    2   35 1
     6    3    4 ar
     7    3   36 1
     8    4    5 ar
     9    4    7 1
    10    5    6 ar
    11    5   37 1
    12    6   38 1
    13    7    8 1
    14    7   39 1
    15    7   40 1
    16    8   14 1
    17    8   18 1
    18    8    9 1
    19    9   10 1
    20    9   41 1
    21    9   42 1
    22   10   11 1
    23   10   43 1
    24   10   44 1
    25   11   12 2
    26   11   13 1
    27   13   14 2
    28   13   45 1
    29   14   15 1
    30   15   16 1
    31   15   46 1
    32   15   47 1
    33   16   17 1
    34   16   48 1
    35   16   49 1
    36   17   18 1
    37   17   19 1
    38   18   50 1
    39   18   51 1
    40   19   20 2
    41   19   21 2
    42   19   22 1
    43   22   27 ar
    44   22   23 ar
    45   23   24 ar
    46   23   52 1
    47   24   25 ar
    48   24   53 1
    49   25   26 ar
    50   25   28 1
    51   26   27 ar
    52   26   54 1
    53   27   55 1
    54   28   33 ar
    55   28   29 ar
    56   29   30 ar
    57   29   56 1
    58   30   31 ar
    59   30   57 1
    60   31   32 ar
    61   31   58 1
    62   32   33 ar
    63   32   59 1
    64   33   60 1
@<TRIPOS>MOLECULE
CHEMBL247235__1
   60    64     0     0     0
SMALL
USER_CHARGES

@<TRIPOS>ATOM
      1 C1         -0.0343    1.3462    0.0128 C.ar      1 <0>        -0.1213
      2 C2          1.1240    2.0290   -0.3081 C.ar      1 <0>        -0.1196
      3 C3          2.3360    1.3646   -0.3243 C.ar      1 <0>        -0.1173
      4 C4          2.3899    0.0174   -0.0190 C.ar      1 <0>        -0.0766
      5 C5          1.2318   -0.6652    0.3028 C.ar      1 <0>        -0.1132
      6 C6          0.0195   -0.0011    0.3176 C.ar      1 <0>        -0.1159
      7 C7          3.7112   -0.7071   -0.0376 C.3       1 <0>        -0.0796
      8 C8          4.2327   -0.8535    1.3933 C.3       1 <0>        -0.0385
      9 C9          4.3980    0.5363    1.9819 C.3       1 <0>        -0.1026
     10 C10         3.0706    1.1006    2.4860 C.3       1 <0>        -0.1907
     11 C11         2.5287    0.1306    3.5179 C.2       1 <0>         0.3902
     12 O1          2.1494    0.5032    4.6085 O.2       1 <0>        -0.4574
     13 C12         2.4875   -1.2825    3.1262 C.2       1 <0>        -0.2240
     14 C13         3.2812   -1.7297    2.1508 C.2       1 <0>        -0.0234
     15 C14         3.1750   -3.1947    1.7660 C.3       1 <0>        -0.1154
     16 C15         4.5830   -3.7984    1.7357 C.3       1 <0>         0.1204
     17 N1          5.4465   -2.9261    0.9278 N.pl3     1 <0>        -0.9953
     18 C16         5.6114   -1.5250    1.3321 C.3       1 <0>         0.1283
     19 S1          6.2198   -3.5134   -0.4137 S.o2      1 <0>         2.6869
     20 O2          7.3482   -2.6775   -0.6305 O.2       1 <0>        -0.9502
     21 O3          6.3357   -4.9181   -0.2333 O.2       1 <0>        -0.9504
     22 C17         5.1412   -3.2691   -1.7854 C.ar      1 <0>        -0.6828
     23 C18         4.2279   -4.2502   -2.1271 C.ar      1 <0>        -0.0141
     24 C19         3.3806   -4.0641   -3.2006 C.ar      1 <0>        -0.1336
     25 C20         3.4465   -2.8853   -3.9406 C.ar      1 <0>         0.0218
     26 C21         4.3683   -1.9004   -3.5920 C.ar      1 <0>        -0.1316
     27 C22         5.2069   -2.0946   -2.5131 C.ar      1 <0>        -0.0132
     28 C23         2.5384   -2.6798   -5.0962 C.ar      1 <0>        -0.0662
     29 C24         1.6129   -3.6625   -5.4416 C.ar      1 <0>        -0.1009
     30 C25         0.7705   -3.4659   -6.5170 C.ar      1 <0>        -0.1193
     31 C26         0.8440   -2.2962   -7.2516 C.ar      1 <0>        -0.1077
     32 C27         1.7612   -1.3176   -6.9135 C.ar      1 <0>        -0.1191
     33 C28         2.6042   -1.5010   -5.8362 C.ar      1 <0>        -0.1000
     34 H1         -0.9807    1.8663    0.0298 H         1 <0>         0.1213
     35 H2          1.0819    3.0815   -0.5466 H         1 <0>         0.1232
     36 H3          3.2409    1.8979   -0.5757 H         1 <0>         0.1239
     37 H4          1.2738   -1.7178    0.5409 H         1 <0>         0.1197
     38 H5         -0.8854   -0.5345    0.5686 H         1 <0>         0.1208
     39 H6          3.5777   -1.6950   -0.4785 H         1 <0>         0.0837
     40 H7          4.4288   -0.1390   -0.6295 H         1 <0>         0.0823
     41 H8          5.1020    0.4887    2.8127 H         1 <0>         0.0733
     42 H9          4.7986    1.2008    1.2164 H         1 <0>         0.0851
     43 H10         3.2328    2.0764    2.9438 H         1 <0>         0.0896
     44 H11         2.3680    1.1911    1.6576 H         1 <0>         0.1253
     45 H12         1.8239   -1.9650    3.6363 H         1 <0>         0.1349
     46 H13         2.5666   -3.7224    2.5005 H         1 <0>         0.0940
     47 H14         2.7187   -3.2815    0.7799 H         1 <0>         0.0883
     48 H15         4.9754   -3.8639    2.7505 H         1 <0>         0.0862
     49 H16         4.5460   -4.7921    1.2893 H         1 <0>         0.1018
     50 H17         6.2407   -1.0001    0.6134 H         1 <0>         0.1047
     51 H18         6.0767   -1.4924    2.3173 H         1 <0>         0.0867
     52 H19         4.1780   -5.1636   -1.5530 H         1 <0>         0.1411
     53 H20         2.6682   -4.8309   -3.4668 H         1 <0>         0.1353
     54 H21         4.4238   -0.9850   -4.1624 H         1 <0>         0.1352
     55 H22         5.9186   -1.3299   -2.2391 H         1 <0>         0.1408
     56 H23         1.5552   -4.5764   -4.8690 H         1 <0>         0.1272
     57 H24         0.0527   -4.2269   -6.7856 H         1 <0>         0.1274
     58 H25         0.1831   -2.1467   -8.0926 H         1 <0>         0.1259
     59 H26         1.8146   -0.4064   -7.4907 H         1 <0>         0.1273
     60 H27         3.3170   -0.7344   -5.5703 H         1 <0>         0.1272
@<TRIPOS>BOND
     1    1    6 ar
     2    1    2 ar
     3    1   34 1
     4    2    3 ar
     5    2   35 1
     6    3    4 ar
     7    3   36 1
     8    4    5 ar
     9    4    7 1
    10    5    6 ar
    11    5   37 1
    12    6   38 1
    13    7    8 1
    14    7   39 1
    15    7   40 1
    16    8   14 1
    17    8   18 1
    18    8    9 1
    19    9   10 1
    20    9   41 1
    21    9   42 1
    22   10   11 1
    23   10   43 1
    24   10   44 1
    25   11   12 2
    26   11   13 1
    27   13   14 2
    28   13   45 1
    29   14   15 1
    30   15   16 1
    31   15   46 1
    32   15   47 1
    33   16   17 1
    34   16   48 1
    35   16   49 1
    36   17   18 1
    37   17   19 1
    38   18   50 1
    39   18   51 1
    40   19   20 2
    41   19   21 2
    42   19   22 1
    43   22   27 ar
    44   22   23 ar
    45   23   24 ar
    46   23   52 1
    47   24   25 ar
    48   24   53 1
    49   25   26 ar
    50   25   28 1
    51   26   27 ar
    52   26   54 1
    53   27   55 1
    54   28   33 ar
    55   28   29 ar
    56   29   30 ar
    57   29   56 1
    58   30   31 ar
    59   30   57 1
    60   31   32 ar
    61   31   58 1
    62   32   33 ar
    63   32   59 1
    64   33   60 1
@<TRIPOS>MOLECULE
CHEMBL381387
   59    62     0     0     0
SMALL
USER_CHARGES

@<TRIPOS>ATOM
      1 C1         -0.0187    1.5258    0.0104 C.3       1 <0>        -0.1577
      2 C2          0.0021   -0.0041    0.0020 C.3       1 <0>         0.2172
      3 C3          0.6961   -0.4876   -1.2433 C.2       1 <0>        -0.1507
      4 C4          2.0016   -0.7252   -1.2521 C.2       1 <0>        -0.0423
      5 C5          2.7883   -0.5287   -0.0179 C.ar      1 <0>        -0.1180
      6 C6          4.1748   -0.4520   -0.0475 C.ar      1 <0>        -0.0488
      7 C7          4.8770   -0.2701    1.1415 C.ar      1 <0>        -0.0869
      8 C8          4.1917   -0.1659    2.3526 C.ar      1 <0>        -0.0444
      9 C9          2.8132   -0.2405    2.3828 C.ar      1 <0>        -0.1814
     10 C10         2.1070   -0.4188    1.2063 C.ar      1 <0>         0.2197
     11 N1          0.7127   -0.4886    1.1924 N.pl3     1 <0>        -0.7442
     12 C11         6.3578   -0.1873    1.1203 C.ar      1 <0>        -0.0654
     13 C12         7.1029   -1.1517    0.4455 C.ar      1 <0>        -0.0720
     14 C13         8.4806   -1.0700    0.4283 C.ar      1 <0>        -0.1547
     15 C14         9.1253   -0.0330    1.0793 C.ar      1 <0>        -0.0823
     16 C15         8.3956    0.9290    1.7518 C.ar      1 <0>        -0.2079
     17 C16         7.0118    0.8621    1.7726 C.ar      1 <0>         0.1357
     18 O1          6.2932    1.8104    2.4286 O.3       1 <0>        -0.3075
     19 C17         7.0293    2.8526    3.0720 C.3       1 <0>         0.0253
     20 C18         2.6778   -1.1936   -2.5148 C.3       1 <0>        -0.0460
     21 S1          3.6201    0.1763   -3.2400 S.3       1 <0>        -0.2428
     22 C19         4.3625   -0.5425   -4.7309 C.3       1 <0>        -0.0559
     23 C20         5.3568   -1.6341   -4.3300 C.3       1 <0>        -0.1142
     24 C21         5.9829   -2.2403   -5.5875 C.3       1 <0>        -0.1172
     25 C22         6.7134   -1.1479   -6.3710 C.3       1 <0>        -0.1221
     26 C23         5.7191   -0.0563   -6.7718 C.3       1 <0>        -0.1144
     27 C24         5.0930    0.5500   -5.5144 C.3       1 <0>        -0.0984
     28 C25        -1.4340   -0.5316    0.0180 C.3       1 <0>        -0.1526
     29 H1          1.0039    1.9031    0.0027 H         1 <0>         0.0590
     30 H2         -0.5459    1.8868   -0.8726 H         1 <0>         0.0653
     31 H3         -0.5289    1.8773    0.9072 H         1 <0>         0.0601
     32 H4          0.1220   -0.6434   -2.1447 H         1 <0>         0.1232
     33 H5          4.7043   -0.5332   -0.9852 H         1 <0>         0.1347
     34 H6          4.7424   -0.0265    3.2711 H         1 <0>         0.1215
     35 H7          2.2873   -0.1599    3.3227 H         1 <0>         0.1227
     36 H8          0.2254   -0.8478    1.9503 H         1 <0>         0.4017
     37 H9          6.6031   -1.9626   -0.0634 H         1 <0>         0.1276
     38 H10         9.0575   -1.8183   -0.0947 H         1 <0>         0.1239
     39 H11        10.2036    0.0246    1.0622 H         1 <0>         0.1236
     40 H12         8.9044    1.7360    2.2580 H         1 <0>         0.1278
     41 H13         7.6185    3.3923    2.3306 H         1 <0>         0.0549
     42 H14         6.3367    3.5407    3.5567 H         1 <0>         0.0999
     43 H15         7.6942    2.4198    3.8194 H         1 <0>         0.0549
     44 H16         3.3538   -2.0161   -2.2812 H         1 <0>         0.0899
     45 H17         1.9246   -1.5330   -3.2258 H         1 <0>         0.0870
     46 H18         3.5798   -0.9750   -5.3541 H         1 <0>         0.0844
     47 H19         6.1394   -1.2016   -3.7067 H         1 <0>         0.0759
     48 H20         4.8364   -2.4124   -3.7718 H         1 <0>         0.0609
     49 H21         6.6913   -3.0180   -5.3019 H         1 <0>         0.0660
     50 H22         5.2003   -2.6729   -6.2108 H         1 <0>         0.0615
     51 H23         7.4961   -0.7154   -5.7477 H         1 <0>         0.0642
     52 H24         7.1595   -1.5798   -7.2668 H         1 <0>         0.0638
     53 H25         6.2395    0.7220   -7.3300 H         1 <0>         0.0682
     54 H26         4.9364   -0.4888   -7.3951 H         1 <0>         0.0631
     55 H27         4.3846    1.3277   -5.7999 H         1 <0>         0.0710
     56 H28         5.8756    0.9825   -4.8911 H         1 <0>         0.0719
     57 H29        -1.9638   -0.1698   -0.8632 H         1 <0>         0.0740
     58 H30        -1.4208   -1.6215    0.0120 H         1 <0>         0.0630
     59 H31        -1.9405   -0.1793    0.9166 H         1 <0>         0.0641
@<TRIPOS>BOND
     1    1    2 1
     2    1   29 1
     3    1   30 1
     4    1   31 1
     5    2   11 1
     6    2    3 1
     7    2   28 1
     8    3    4 2
     9    3   32 1
    10    4    5 1
    11    4   20 1
    12    5   10 ar
    13    5    6 ar
    14    6    7 ar
    15    6   33 1
    16    7    8 ar
    17    7   12 1
    18    8    9 ar
    19    8   34 1
    20    9   10 ar
    21    9   35 1
    22   10   11 1
    23   11   36 1
    24   12   17 ar
    25   12   13 ar
    26   13   14 ar
    27   13   37 1
    28   14   15 ar
    29   14   38 1
    30   15   16 ar
    31   15   39 1
    32   16   17 ar
    33   16   40 1
    34   17   18 1
    35   18   19 1
    36   19   41 1
    37   19   42 1
    38   19   43 1
    39   20   21 1
    40   20   44 1
    41   20   45 1
    42   21   22 1
    43   22   27 1
    44   22   23 1
    45   22   46 1
    46   23   24 1
    47   23   47 1
    48   23   48 1
    49   24   25 1
    50   24   49 1
    51   24   50 1
    52   25   26 1
    53   25   51 1
    54   25   52 1
    55   26   27 1
    56   26   53 1
    57   26   54 1
    58   27   55 1
    59   27   56 1
    60   28   57 1
    61   28   58 1
    62   28   59 1
@<TRIPOS>MOLECULE
CHEMBL473801
   44    48     0     0     0
SMALL
USER_CHARGES

@<TRIPOS>ATOM
      1 C1         -0.0187    1.5258    0.0104 C.3       1 <0>        -0.1479
      2 C2          0.0021   -0.0041    0.0020 C.3       1 <0>        -0.0583
      3 C3          0.6771   -0.4875   -1.2790 C.3       1 <0>        -0.0998
      4 C4          1.9222   -1.3465   -0.9684 C.3       1 <0>         0.1243
      5 C5          1.4265   -2.4605   -0.0594 C.ar      1 <0>        -0.0865
      6 C6          1.5501   -3.7948   -0.3226 C.ar      1 <0>        -0.1035
      7 C7          1.0508   -4.7073    0.5978 C.ar      1 <0>        -0.1157
      8 C8          0.4407   -4.2692    1.7584 C.ar      1 <0>        -0.1110
      9 C9          0.3182   -2.9104    2.0194 C.ar      1 <0>        -0.0721
     10 C10         0.8113   -2.0189    1.1100 C.ar      1 <0>        -0.0653
     11 C11         0.7505   -0.5062    1.2559 C.3       1 <0>         0.0191
     12 C12         2.1860   -0.0342    1.0844 C.ar      1 <0>        -0.0689
     13 C13         2.8019   -0.4760   -0.0845 C.ar      1 <0>        -0.0768
     14 C14         4.0916   -0.1283   -0.3688 C.ar      1 <0>        -0.0988
     15 C15         4.7812    0.6761    0.5294 C.ar      1 <0>        -0.1134
     16 C16         4.1698    1.1150    1.6890 C.ar      1 <0>        -0.1104
     17 C17         2.8580    0.7567    1.9721 C.ar      1 <0>        -0.0970
     18 C18         2.6110   -1.8253   -2.1780 C.1       1 <0>         0.2277
     19 N1          3.1425   -2.1947   -3.1116 N.1       1 <0>        -0.4017
     20 C19        -1.4147   -0.5165    0.0350 C.2       1 <0>         0.5179
     21 O1         -1.7835   -1.2213    0.9506 O.2       1 <0>        -0.4470
     22 N2         -2.2720   -0.1916   -0.9529 N.am      1 <0>        -0.6233
     23 C20        -3.5789   -0.6643   -0.9224 C.2       1 <0>         0.2731
     24 N3         -4.1515   -1.4267   -0.0162 N.2       1 <0>        -0.5194
     25 C21        -5.4144   -1.7932   -0.1320 C.2       1 <0>         0.0629
     26 C22        -6.0874   -1.3489   -1.2219 C.2       1 <0>        -0.2436
     27 S1         -4.8149   -0.3940   -2.0322 S.3       1 <0>         0.1039
     28 H1          1.0039    1.9031    0.0027 H         1 <0>         0.0825
     29 H2         -0.5459    1.8868   -0.8726 H         1 <0>         0.0661
     30 H3         -0.5289    1.8773    0.9072 H         1 <0>         0.0723
     31 H4         -0.0326   -1.0827   -1.8535 H         1 <0>         0.0837
     32 H5          0.9785    0.3764   -1.8714 H         1 <0>         0.0981
     33 H6          2.0272   -4.1343   -1.2301 H         1 <0>         0.1198
     34 H7          1.1394   -5.7663    0.4054 H         1 <0>         0.1243
     35 H8          0.0564   -4.9882    2.4668 H         1 <0>         0.1253
     36 H9         -0.1583   -2.5653    2.9251 H         1 <0>         0.1305
     37 H10         0.2876   -0.1840    2.1887 H         1 <0>         0.1202
     38 H11         4.5668   -0.4728   -1.2754 H         1 <0>         0.1224
     39 H12         5.8018    0.9608    0.3203 H         1 <0>         0.1266
     40 H13         4.7160    1.7401    2.3798 H         1 <0>         0.1276
     41 H14         2.3780    1.0978    2.8775 H         1 <0>         0.1324
     42 H15        -1.9771    0.3720   -1.6851 H         1 <0>         0.4243
     43 H16        -5.8902   -2.4192    0.6082 H         1 <0>         0.1761
     44 H17        -7.1119   -1.5219   -1.5167 H         1 <0>         0.1994
@<TRIPOS>BOND
     1    1    2 1
     2    1   28 1
     3    1   29 1
     4    1   30 1
     5    2   11 1
     6    2    3 1
     7    2   20 1
     8    3    4 1
     9    3   31 1
    10    3   32 1
    11    4   13 1
    12    4    5 1
    13    4   18 1
    14    5   10 ar
    15    5    6 ar
    16    6    7 ar
    17    6   33 1
    18    7    8 ar
    19    7   34 1
    20    8    9 ar
    21    8   35 1
    22    9   10 ar
    23    9   36 1
    24   10   11 1
    25   11   12 1
    26   11   37 1
    27   12   17 ar
    28   12   13 ar
    29   13   14 ar
    30   14   15 ar
    31   14   38 1
    32   15   16 ar
    33   15   39 1
    34   16   17 ar
    35   16   40 1
    36   17   41 1
    37   18   19 3
    38   20   21 2
    39   20   22 am
    40   22   23 1
    41   22   42 1
    42   23   27 1
    43   23   24 2
    44   24   25 1
    45   25   26 2
    46   25   43 1
    47   26   27 1
    48   26   44 1
@<TRIPOS>MOLECULE
CHEMBL65498
   42    45     0     0     0
SMALL
USER_CHARGES

@<TRIPOS>ATOM
      1 C1         -0.0173    1.4248    0.0099 C.3       1 <0>         0.0221
      2 O1          0.0021   -0.0041    0.0020 O.3       1 <0>        -0.2996
      3 C2         -1.1999   -0.6373    0.0101 C.ar      1 <0>         0.1443
      4 C3         -2.3766    0.0983    0.0195 C.ar      1 <0>        -0.2275
      5 C4         -3.5984   -0.5485    0.0297 C.ar      1 <0>        -0.0757
      6 C5         -3.6629   -1.9302    0.0428 C.ar      1 <0>        -0.1733
      7 C6         -2.4989   -2.6793    0.0401 C.ar      1 <0>         0.1459
      8 C7         -1.2590   -2.0276    0.0032 C.ar      1 <0>        -0.0925
      9 C8         -0.0335   -2.8588   -0.0287 C.ar      1 <0>        -0.1539
     10 C9          1.2228   -2.3154    0.2107 C.ar      1 <0>        -0.0345
     11 C10         2.3353   -3.1323    0.1895 C.ar      1 <0>        -0.2586
     12 C11         2.1965   -4.4914   -0.0681 C.ar      1 <0>         0.2942
     13 C12         0.9400   -5.0339   -0.3152 C.ar      1 <0>        -0.1583
     14 C13        -0.1714   -4.2215   -0.3057 C.ar      1 <0>        -0.0766
     15 C14        -1.5376   -4.7727   -0.6192 C.3       1 <0>         0.2039
     16 O2         -2.5439   -4.0345    0.0849 O.3       1 <0>        -0.3084
     17 C15        -1.6008   -6.2178   -0.1962 C.2       1 <0>        -0.1132
     18 C16        -1.3434   -7.2267   -1.1052 C.2       1 <0>        -0.1368
     19 C17        -1.4087   -8.5160   -0.6923 C.2       1 <0>        -0.1749
     20 S1         -1.8452   -8.3308    1.0289 S.3       1 <0>         0.0179
     21 C18        -1.9055   -6.5474    1.0828 C.2       1 <0>        -0.1292
     22 N1          3.3240   -5.3156   -0.0791 N.2       1 <0>        -1.0938
     23 S2          4.8219   -4.6734    0.2142 S.o2      1 <0>         2.5251
     24 O3          5.0474   -3.7730   -0.8617 O.2       1 <0>        -1.0290
     25 O4          4.7581   -4.2010    1.5529 O.2       1 <0>        -1.0285
     26 C19         5.9622   -6.0797    0.1016 C.3       1 <0>        -0.6374
     27 H1          1.0053    1.8021    0.0021 H         1 <0>         0.0971
     28 H2         -0.5445    1.7859   -0.8732 H         1 <0>         0.0524
     29 H3         -0.5275    1.7763    0.9067 H         1 <0>         0.0524
     30 H4         -2.3378    1.1776    0.0186 H         1 <0>         0.1248
     31 H5         -4.5104    0.0300    0.0279 H         1 <0>         0.1245
     32 H6         -4.6227   -2.4252    0.0554 H         1 <0>         0.1269
     33 H7          1.3283   -1.2595    0.4119 H         1 <0>         0.1284
     34 H8          3.3144   -2.7153    0.3734 H         1 <0>         0.1042
     35 H9          0.8363   -6.0903   -0.5143 H         1 <0>         0.1182
     36 H10        -1.7152   -4.7066   -1.6926 H         1 <0>         0.0806
     37 H11        -1.0942   -6.9912   -2.1294 H         1 <0>         0.1360
     38 H12        -1.2407   -9.4207   -1.2578 H         1 <0>         0.1849
     39 H13        -2.1281   -5.8993    1.9176 H         1 <0>         0.1860
     40 H14         5.8998   -6.5192   -0.8939 H         1 <0>         0.1151
     41 H15         6.9807   -5.7371    0.2843 H         1 <0>         0.1013
     42 H16         5.6913   -6.8277    0.8467 H         1 <0>         0.1153
@<TRIPOS>BOND
     1    1    2 1
     2    1   27 1
     3    1   28 1
     4    1   29 1
     5    2    3 1
     6    3    8 ar
     7    3    4 ar
     8    4    5 ar
     9    4   30 1
    10    5    6 ar
    11    5   31 1
    12    6    7 ar
    13    6   32 1
    14    7   16 1
    15    7    8 ar
    16    8    9 1
    17    9   14 ar
    18    9   10 ar
    19   10   11 ar
    20   10   33 1
    21   11   12 ar
    22   11   34 1
    23   12   13 ar
    24   12   22 1
    25   13   14 ar
    26   13   35 1
    27   14   15 1
    28   15   16 1
    29   15   17 1
    30   15   36 1
    31   17   21 2
    32   17   18 1
    33   18   19 2
    34   18   37 1
    35   19   20 1
    36   19   38 1
    37   20   21 1
    38   21   39 1
    39   22   23 1
    40   23   24 2
    41   23   25 2
    42   23   26 1
    43   26   40 1
    44   26   41 1
    45   26   42 1
@<TRIPOS>MOLECULE
CHEMBL65498__1
   42    45     0     0     0
SMALL
USER_CHARGES

@<TRIPOS>ATOM
      1 C1         -0.0173    1.4248    0.0099 C.3       1 <0>         0.0218
      2 O1          0.0021   -0.0041    0.0020 O.3       1 <0>        -0.2988
      3 C2         -1.1999   -0.6373    0.0101 C.ar      1 <0>         0.1437
      4 C3         -2.3766    0.0983    0.0195 C.ar      1 <0>        -0.2279
      5 C4         -3.5984   -0.5485    0.0307 C.ar      1 <0>        -0.0756
      6 C5         -3.6628   -1.9302    0.0437 C.ar      1 <0>        -0.1768
      7 C6         -2.4989   -2.6793    0.0392 C.ar      1 <0>         0.1440
      8 C7         -1.2590   -2.0276    0.0032 C.ar      1 <0>        -0.0928
      9 C8         -0.0335   -2.8588   -0.0287 C.ar      1 <0>        -0.1509
     10 C9          1.2228   -2.3154    0.2107 C.ar      1 <0>        -0.0338
     11 C10         2.3353   -3.1323    0.1895 C.ar      1 <0>        -0.2578
     12 C11         2.1966   -4.4912   -0.0690 C.ar      1 <0>         0.2961
     13 C12         0.9401   -5.0337   -0.3162 C.ar      1 <0>        -0.1633
     14 C13        -0.1714   -4.2215   -0.3057 C.ar      1 <0>        -0.0706
     15 C14        -1.5376   -4.7727   -0.6192 C.3       1 <0>         0.2009
     16 O2         -2.5439   -4.0345    0.0831 O.3       1 <0>        -0.3022
     17 C15        -1.7832   -4.6813   -2.1032 C.2       1 <0>        -0.1415
     18 C16        -1.6259   -5.7925   -2.9100 C.2       1 <0>        -0.1345
     19 C17        -1.8547   -5.6762   -4.2410 C.2       1 <0>        -0.1779
     20 S1         -2.3078   -3.9558   -4.3888 S.3       1 <0>         0.0164
     21 C18        -2.1670   -3.5094   -2.6660 C.2       1 <0>        -0.1461
     22 N1          3.3242   -5.3152   -0.0809 N.2       1 <0>        -1.0952
     23 S2          4.8221   -4.6731    0.2124 S.o2      1 <0>         2.5258
     24 O3          5.0472   -3.7719   -0.8630 O.2       1 <0>        -1.0284
     25 O4          4.7587   -4.2016    1.5514 O.2       1 <0>        -1.0284
     26 C19         5.9626   -6.0791    0.0985 C.3       1 <0>        -0.6376
     27 H1          1.0053    1.8021    0.0021 H         1 <0>         0.0974
     28 H2         -0.5445    1.7859   -0.8732 H         1 <0>         0.0525
     29 H3         -0.5275    1.7763    0.9067 H         1 <0>         0.0528
     30 H4         -2.3378    1.1776    0.0186 H         1 <0>         0.1256
     31 H5         -4.5104    0.0300    0.0295 H         1 <0>         0.1252
     32 H6         -4.6226   -2.4252    0.0570 H         1 <0>         0.1279
     33 H7          1.3283   -1.2595    0.4119 H         1 <0>         0.1284
     34 H8          3.3144   -2.7153    0.3734 H         1 <0>         0.1044
     35 H9          0.8365   -6.0900   -0.5159 H         1 <0>         0.1153
     36 H10        -1.5833   -5.8179   -0.3132 H         1 <0>         0.1253
     37 H11        -1.3248   -6.7392   -2.4863 H         1 <0>         0.1370
     38 H12        -1.7815   -6.4290   -5.0120 H         1 <0>         0.1844
     39 H13        -2.3414   -2.5535   -2.1946 H         1 <0>         0.1835
     40 H14         5.9000   -6.5180   -0.8973 H         1 <0>         0.1152
     41 H15         6.9811   -5.7366    0.2812 H         1 <0>         0.1015
     42 H16         5.6920   -6.8277    0.8431 H         1 <0>         0.1154
@<TRIPOS>BOND
     1    1    2 1
     2    1   27 1
     3    1   28 1
     4    1   29 1
     5    2    3 1
     6    3    8 ar
     7    3    4 ar
     8    4    5 ar
     9    4   30 1
    10    5    6 ar
    11    5   31 1
    12    6    7 ar
    13    6   32 1
    14    7   16 1
    15    7    8 ar
    16    8    9 1
    17    9   14 ar
    18    9   10 ar
    19   10   11 ar
    20   10   33 1
    21   11   12 ar
    22   11   34 1
    23   12   13 ar
    24   12   22 1
    25   13   14 ar
    26   13   35 1
    27   14   15 1
    28   15   16 1
    29   15   17 1
    30   15   36 1
    31   17   21 2
    32   17   18 1
    33   18   19 2
    34   18   37 1
    35   19   20 1
    36   19   38 1
    37   20   21 1
    38   21   39 1
    39   22   23 1
    40   23   24 2
    41   23   25 2
    42   23   26 1
    43   26   40 1
    44   26   41 1
    45   26   42 1
@<TRIPOS>MOLECULE
CHEMBL294800
   48    51     0     0     0
SMALL
USER_CHARGES

@<TRIPOS>ATOM
      1 C1         -0.0184    1.5028    0.0103 C.3       1 <0>        -0.1114
      2 C2          0.0021   -0.0041    0.0020 C.ar      1 <0>        -0.0884
      3 C3          0.0057   -0.6888   -1.1991 C.ar      1 <0>        -0.1206
      4 C4          0.0245   -2.0707   -1.2067 C.ar      1 <0>        -0.1187
      5 C5          0.0400   -2.7685   -0.0132 C.ar      1 <0>        -0.0923
      6 C6          0.0373   -2.0840    1.1875 C.ar      1 <0>        -0.0622
      7 C7          0.0229   -0.7015    1.1951 C.ar      1 <0>        -0.1029
      8 C8          0.0538   -2.8445    2.4885 C.3       1 <0>         0.1873
      9 C9          1.4780   -3.1626    2.8612 C.ar      1 <0>        -0.0778
     10 C10         2.5125   -2.3411    2.4735 C.ar      1 <0>        -0.1596
     11 C11         3.8171   -2.6477    2.8450 C.ar      1 <0>         0.2945
     12 C12         4.0815   -3.7792    3.6082 C.ar      1 <0>        -0.2585
     13 C13         3.0487   -4.6096    3.9943 C.ar      1 <0>        -0.0348
     14 C14         1.7462   -4.3082    3.6153 C.ar      1 <0>        -0.1534
     15 C15         0.6105   -5.1914    3.9673 C.ar      1 <0>        -0.0926
     16 C16        -0.6102   -4.9923    3.3092 C.ar      1 <0>         0.1462
     17 C17        -1.6968   -5.7864    3.6322 C.ar      1 <0>        -0.1730
     18 C18        -1.5675   -6.7856    4.5802 C.ar      1 <0>        -0.0756
     19 C19        -0.3566   -7.0047    5.2102 C.ar      1 <0>        -0.2275
     20 C20         0.7404   -6.2116    4.9048 C.ar      1 <0>         0.1444
     21 O1          1.9336   -6.4301    5.5168 O.3       1 <0>        -0.2996
     22 C21         1.9897   -7.4953    6.4676 C.3       1 <0>         0.0221
     23 O2         -0.7037   -4.0445    2.3428 O.3       1 <0>        -0.3068
     24 N1          4.8664   -1.8149    2.4499 N.2       1 <0>        -1.0935
     25 S1          6.4213   -2.1765    2.8901 S.o2      1 <0>         2.5248
     26 O3          6.4276   -2.0833    4.3081 O.2       1 <0>        -1.0289
     27 O4          6.7035   -3.4102    2.2439 O.2       1 <0>        -1.0286
     28 C22         7.4294   -0.8502    2.1723 C.3       1 <0>        -0.6374
     29 H1          1.0042    1.8801    0.0026 H         1 <0>         0.0709
     30 H2         -0.5455    1.8639   -0.8728 H         1 <0>         0.0623
     31 H3         -0.5286    1.8543    0.9071 H         1 <0>         0.0642
     32 H4         -0.0064   -0.1437   -2.1314 H         1 <0>         0.1177
     33 H5          0.0266   -2.6056   -2.1449 H         1 <0>         0.1198
     34 H6          0.0540   -3.8484   -0.0191 H         1 <0>         0.1245
     35 H7          0.0246   -0.1666    2.1333 H         1 <0>         0.1234
     36 H8         -0.3916   -2.2299    3.2708 H         1 <0>         0.0800
     37 H9          2.3113   -1.4604    1.8817 H         1 <0>         0.1190
     38 H10         5.0960   -4.0088    3.8990 H         1 <0>         0.1043
     39 H11         3.2517   -5.4886    4.5880 H         1 <0>         0.1288
     40 H12        -2.6466   -5.6256    3.1440 H         1 <0>         0.1271
     41 H13        -2.4200   -7.3996    4.8305 H         1 <0>         0.1246
     42 H14        -0.2643   -7.7943    5.9412 H         1 <0>         0.1249
     43 H15         1.2792   -7.3026    7.2715 H         1 <0>         0.0523
     44 H16         1.7363   -8.4347    5.9762 H         1 <0>         0.0524
     45 H17         2.9963   -7.5613    6.8805 H         1 <0>         0.0971
     46 H18         7.1086    0.1097    2.5771 H         1 <0>         0.1152
     47 H19         8.4779   -1.0165    2.4194 H         1 <0>         0.1013
     48 H20         7.3075   -0.8468    1.0892 H         1 <0>         0.1152
@<TRIPOS>BOND
     1    1    2 1
     2    1   29 1
     3    1   30 1
     4    1   31 1
     5    2    7 ar
     6    2    3 ar
     7    3    4 ar
     8    3   32 1
     9    4    5 ar
    10    4   33 1
    11    5    6 ar
    12    5   34 1
    13    6    7 ar
    14    6    8 1
    15    7   35 1
    16    8   23 1
    17    8    9 1
    18    8   36 1
    19    9   14 ar
    20    9   10 ar
    21   10   11 ar
    22   10   37 1
    23   11   12 ar
    24   11   24 1
    25   12   13 ar
    26   12   38 1
    27   13   14 ar
    28   13   39 1
    29   14   15 1
    30   15   20 ar
    31   15   16 ar
    32   16   17 ar
    33   16   23 1
    34   17   18 ar
    35   17   40 1
    36   18   19 ar
    37   18   41 1
    38   19   20 ar
    39   19   42 1
    40   20   21 1
    41   21   22 1
    42   22   43 1
    43   22   44 1
    44   22   45 1
    45   24   25 1
    46   25   26 2
    47   25   27 2
    48   25   28 1
    49   28   46 1
    50   28   47 1
    51   28   48 1
@<TRIPOS>MOLECULE
CHEMBL294800__1
   48    51     0     0     0
SMALL
USER_CHARGES

@<TRIPOS>ATOM
      1 C1         -0.0184    1.5028    0.0103 C.3       1 <0>        -0.1114
      2 C2          0.0021   -0.0041    0.0020 C.ar      1 <0>        -0.0903
      3 C3          0.0057   -0.6888   -1.1991 C.ar      1 <0>        -0.1227
      4 C4          0.0245   -2.0707   -1.2067 C.ar      1 <0>        -0.1169
      5 C5          0.0400   -2.7685   -0.0132 C.ar      1 <0>        -0.1106
      6 C6          0.0373   -2.0840    1.1875 C.ar      1 <0>        -0.0950
      7 C7          0.0229   -0.7015    1.1951 C.ar      1 <0>        -0.1018
      8 C8          0.0538   -2.8445    2.4885 C.3       1 <0>         0.1847
      9 C9         -1.3428   -3.3055    2.8134 C.ar      1 <0>        -0.0723
     10 C10        -2.1930   -2.5200    3.5587 C.ar      1 <0>        -0.1637
     11 C11        -3.4836   -2.9609    3.8307 C.ar      1 <0>         0.2958
     12 C12        -3.9203   -4.1907    3.3516 C.ar      1 <0>        -0.2576
     13 C13        -3.0697   -4.9849    2.6091 C.ar      1 <0>        -0.0345
     14 C14        -1.7772   -4.5484    2.3452 C.ar      1 <0>        -0.1499
     15 C15        -0.8138   -5.3836    1.5912 C.ar      1 <0>        -0.0938
     16 C16         0.5392   -5.0212    1.6204 C.ar      1 <0>         0.1489
     17 C17         1.4609   -5.7683    0.9076 C.ar      1 <0>        -0.1776
     18 C18         1.0490   -6.8792    0.1935 C.ar      1 <0>        -0.0746
     19 C19        -0.2807   -7.2573    0.1866 C.ar      1 <0>        -0.2287
     20 C20        -1.2193   -6.5142    0.8884 C.ar      1 <0>         0.1445
     21 O1         -2.5255   -6.8882    0.8896 O.3       1 <0>        -0.2991
     22 C21        -2.8655   -8.0598    0.1454 C.3       1 <0>         0.0219
     23 O2          0.9331   -3.9615    2.3706 O.3       1 <0>        -0.3024
     24 N1         -4.3451   -2.1644    4.5884 N.2       1 <0>        -1.0952
     25 S1         -5.8827   -2.6858    4.9145 S.o2      1 <0>         2.5256
     26 O3         -6.5167   -2.7617    3.6451 O.2       1 <0>        -1.0285
     27 O4         -5.7095   -3.8514    5.7086 O.2       1 <0>        -1.0284
     28 C22        -6.6244   -1.3594    5.9051 C.3       1 <0>        -0.6375
     29 H1          1.0042    1.8801    0.0026 H         1 <0>         0.0666
     30 H2         -0.5455    1.8639   -0.8728 H         1 <0>         0.0632
     31 H3         -0.5286    1.8543    0.9071 H         1 <0>         0.0670
     32 H4         -0.0064   -0.1437   -2.1314 H         1 <0>         0.1172
     33 H5          0.0266   -2.6056   -2.1449 H         1 <0>         0.1182
     34 H6          0.0540   -3.8484   -0.0191 H         1 <0>         0.1274
     35 H7          0.0246   -0.1666    2.1333 H         1 <0>         0.1242
     36 H8          0.4081   -2.1894    3.2843 H         1 <0>         0.1269
     37 H9         -1.8583   -1.5633    3.9317 H         1 <0>         0.1155
     38 H10        -4.9257   -4.5251    3.5607 H         1 <0>         0.1045
     39 H11        -3.4071   -5.9404    2.2354 H         1 <0>         0.1288
     40 H12         2.5026   -5.4833    0.9085 H         1 <0>         0.1276
     41 H13         1.7724   -7.4560   -0.3636 H         1 <0>         0.1249
     42 H14        -0.5895   -8.1324   -0.3659 H         1 <0>         0.1251
     43 H15        -2.6039   -7.9132   -0.9026 H         1 <0>         0.0523
     44 H16        -2.3159   -8.9139    0.5410 H         1 <0>         0.0527
     45 H17        -3.9362   -8.2459    0.2299 H         1 <0>         0.0972
     46 H18        -6.6261   -0.4337    5.3296 H         1 <0>         0.1152
     47 H19        -7.6486   -1.6284    6.1637 H         1 <0>         0.1014
     48 H20        -6.0443   -1.2192    6.8171 H         1 <0>         0.1154
@<TRIPOS>BOND
     1    1    2 1
     2    1   29 1
     3    1   30 1
     4    1   31 1
     5    2    7 ar
     6    2    3 ar
     7    3    4 ar
     8    3   32 1
     9    4    5 ar
    10    4   33 1
    11    5    6 ar
    12    5   34 1
    13    6    7 ar
    14    6    8 1
    15    7   35 1
    16    8   23 1
    17    8    9 1
    18    8   36 1
    19    9   14 ar
    20    9   10 ar
    21   10   11 ar
    22   10   37 1
    23   11   12 ar
    24   11   24 1
    25   12   13 ar
    26   12   38 1
    27   13   14 ar
    28   13   39 1
    29   14   15 1
    30   15   20 ar
    31   15   16 ar
    32   16   17 ar
    33   16   23 1
    34   17   18 ar
    35   17   40 1
    36   18   19 ar
    37   18   41 1
    38   19   20 ar
    39   19   42 1
    40   20   21 1
    41   21   22 1
    42   22   43 1
    43   22   44 1
    44   22   45 1
    45   24   25 1
    46   25   26 2
    47   25   27 2
    48   25   28 1
    49   28   46 1
    50   28   47 1
    51   28   48 1
@<TRIPOS>MOLECULE
CHEMBL386916
   53    55     0     0     0
SMALL
USER_CHARGES

@<TRIPOS>ATOM
      1 C1          0.9062   -0.2806    0.9043 C.3       1 <0>        -0.1550
      2 C2         -0.0748   -0.5901   -0.2282 C.3       1 <0>        -0.0123
      3 C3          0.2895   -1.9323   -0.8659 C.3       1 <0>        -0.1358
      4 C4         -1.4962   -0.6612    0.3334 C.3       1 <0>        -0.1532
      5 C5         -1.6476    0.3538    1.4682 C.3       1 <0>         0.0794
      6 C6         -3.0271    0.1978    2.1113 C.3       1 <0>         0.0615
      7 N1         -3.2078    1.2294    3.1356 N.pl3     1 <0>        -0.4969
      8 C7         -2.6809    1.0368    4.3710 C.2       1 <0>         0.1800
      9 C8         -2.8070    1.9416    5.3633 C.2       1 <0>        -0.3002
     10 C9         -3.5106    3.1498    5.1394 C.2       1 <0>         0.4248
     11 O1         -3.6356    3.9811    6.0234 O.2       1 <0>        -0.4878
     12 C10        -4.0856    3.3671    3.8018 C.ar      1 <0>        -0.2557
     13 C11        -3.9011    2.3709    2.8227 C.ar      1 <0>         0.2469
     14 C12        -4.4429    2.5849    1.5565 C.ar      1 <0>        -0.2451
     15 C13        -5.1265    3.7573    1.3186 C.ar      1 <0>         0.1581
     16 N2         -5.2767    4.6744    2.2596 N.ar      1 <0>        -0.5124
     17 C14        -4.7954    4.5195    3.4766 C.ar      1 <0>         0.1995
     18 C15        -1.5031    1.7702    0.9081 C.3       1 <0>         0.4637
     19 F1         -2.4259    1.9590   -0.1263 F         1 <0>        -0.1680
     20 F2         -1.7453    2.7005    1.9246 F         1 <0>        -0.1690
     21 F3         -0.2062    1.9464    0.4141 F         1 <0>        -0.1476
     22 O2         -0.6354    0.1245    2.4505 O.3       1 <0>        -0.5183
     23 C16         0.0003    0.4973   -1.2690 C.ar      1 <0>        -0.0658
     24 C17        -1.1416    0.8930   -1.9387 C.ar      1 <0>        -0.1385
     25 C18        -1.0731    1.8921   -2.8944 C.ar      1 <0>         0.0717
     26 C19         0.1396    2.4960   -3.1809 C.ar      1 <0>        -0.1216
     27 C20         1.2828    2.1024   -2.5129 C.ar      1 <0>        -0.1751
     28 C21         1.2145    1.1052   -1.5508 C.ar      1 <0>         0.1275
     29 O3          2.3378    0.7207   -0.8886 O.3       1 <0>        -0.2951
     30 C22         3.5533    1.3901   -1.2300 C.3       1 <0>         0.0153
     31 F4         -2.1904    2.2781   -3.5486 F         1 <0>        -0.1392
     32 H1          1.9277   -0.3947    0.5416 H         1 <0>         0.0702
     33 H2          0.7545    0.7430    1.2469 H         1 <0>         0.0920
     34 H3          0.7353   -0.9696    1.7315 H         1 <0>         0.0577
     35 H4          0.1507   -2.7305   -0.1367 H         1 <0>         0.0616
     36 H5         -0.3535   -2.1116   -1.7276 H         1 <0>         0.0559
     37 H6          1.3307   -1.9111   -1.1876 H         1 <0>         0.0652
     38 H7         -2.2110   -0.4320   -0.4569 H         1 <0>         0.0975
     39 H8         -1.6861   -1.6643    0.7154 H         1 <0>         0.1021
     40 H9         -3.7979    0.3047    1.3480 H         1 <0>         0.1192
     41 H10        -3.1046   -0.7877    2.5704 H         1 <0>         0.1232
     42 H11        -2.1398    0.1231    4.5677 H         1 <0>         0.1625
     43 H12        -2.3704    1.7439    6.3311 H         1 <0>         0.1545
     44 H13        -4.3289    1.8463    0.7769 H         1 <0>         0.1449
     45 H14        -5.5494    3.9317    0.3402 H         1 <0>         0.1637
     46 H15        -4.9400    5.2922    4.2172 H         1 <0>         0.1730
     47 H16        -0.6665   -0.7560    2.8492 H         1 <0>         0.3913
     48 H17        -2.0880    0.4224   -1.7168 H         1 <0>         0.1435
     49 H18         0.1918    3.2749   -3.9273 H         1 <0>         0.1368
     50 H19         2.2286    2.5733   -2.7368 H         1 <0>         0.1375
     51 H20         4.3700    0.9888   -0.6299 H         1 <0>         0.1013
     52 H21         3.7690    1.2349   -2.2871 H         1 <0>         0.0551
     53 H22         3.4482    2.4570   -1.0334 H         1 <0>         0.0556
@<TRIPOS>BOND
     1    1    2 1
     2    1   32 1
     3    1   33 1
     4    1   34 1
     5    2    3 1
     6    2    4 1
     7    2   23 1
     8    3   35 1
     9    3   36 1
    10    3   37 1
    11    4    5 1
    12    4   38 1
    13    4   39 1
    14    5    6 1
    15    5   18 1
    16    5   22 1
    17    6    7 1
    18    6   40 1
    19    6   41 1
    20    7   13 1
    21    7    8 1
    22    8    9 2
    23    8   42 1
    24    9   10 1
    25    9   43 1
    26   10   11 2
    27   10   12 1
    28   12   17 ar
    29   12   13 ar
    30   13   14 ar
    31   14   15 ar
    32   14   44 1
    33   15   16 ar
    34   15   45 1
    35   16   17 ar
    36   17   46 1
    37   18   19 1
    38   18   20 1
    39   18   21 1
    40   22   47 1
    41   23   28 ar
    42   23   24 ar
    43   24   25 ar
    44   24   48 1
    45   25   26 ar
    46   25   31 1
    47   26   27 ar
    48   26   49 1
    49   27   28 ar
    50   27   50 1
    51   28   29 1
    52   29   30 1
    53   30   51 1
    54   30   52 1
    55   30   53 1
@<TRIPOS>MOLECULE
CHEMBL386916__1
   53    55     0     0     0
SMALL
USER_CHARGES

@<TRIPOS>ATOM
      1 C1          0.1987    0.4981   -1.5632 C.3       1 <0>        -0.1376
      2 C2         -0.0995    0.6101   -0.0668 C.3       1 <0>        -0.0108
      3 C3         -0.1593    2.0860    0.3323 C.3       1 <0>        -0.1581
      4 C4         -1.4436   -0.0550    0.2366 C.3       1 <0>        -0.1561
      5 C5         -2.0834    0.6191    1.4519 C.3       1 <0>         0.0780
      6 C6         -3.4729    0.0253    1.6918 C.3       1 <0>         0.0613
      7 N1         -4.0856    0.6708    2.8555 N.pl3     1 <0>        -0.4960
      8 C7         -3.8847    0.1429    4.0891 C.2       1 <0>         0.1743
      9 C8         -4.4163    0.6823    5.2051 C.2       1 <0>        -0.2988
     10 C9         -5.2202    1.8448    5.1203 C.2       1 <0>         0.4253
     11 O1         -5.7099    2.3483    6.1176 O.2       1 <0>        -0.4862
     12 C10        -5.4435    2.4244    3.7856 C.ar      1 <0>        -0.2550
     13 C11        -4.8450    1.7986    2.6742 C.ar      1 <0>         0.2479
     14 C12        -5.0555    2.3553    1.4138 C.ar      1 <0>        -0.2335
     15 C13        -5.8307    3.4898    1.3123 C.ar      1 <0>         0.1558
     16 N2         -6.3736    4.0550    2.3777 N.ar      1 <0>        -0.5126
     17 C14        -6.2171    3.5652    3.5911 C.ar      1 <0>         0.2014
     18 C15        -1.2086    0.3842    2.6849 C.3       1 <0>         0.4597
     19 F1          0.0793    0.8743    2.4433 F         1 <0>        -0.1425
     20 F2         -1.7625    1.0501    3.7835 F         1 <0>        -0.1645
     21 F3         -1.1426   -0.9868    2.9555 F         1 <0>        -0.1706
     22 O2         -2.2004    2.0229    1.2114 O.3       1 <0>        -0.5140
     23 C16         0.9894   -0.0780    0.7154 C.ar      1 <0>        -0.0511
     24 C17         0.7091   -1.2316    1.4224 C.ar      1 <0>        -0.1609
     25 C18         1.7093   -1.8643    2.1405 C.ar      1 <0>         0.0751
     26 C19         2.9917   -1.3419    2.1519 C.ar      1 <0>        -0.1254
     27 C20         3.2746   -0.1888    1.4460 C.ar      1 <0>        -0.1699
     28 C21         2.2746    0.4431    0.7212 C.ar      1 <0>         0.1183
     29 O3          2.5530    1.5749    0.0215 O.3       1 <0>        -0.3021
     30 C22         3.8981    2.0549    0.0726 C.3       1 <0>         0.0207
     31 F4          1.4339   -2.9921    2.8314 F         1 <0>        -0.1390
     32 H1          1.1106    1.0488   -1.7942 H         1 <0>         0.0715
     33 H2          0.3301   -0.5506   -1.8300 H         1 <0>         0.0547
     34 H3         -0.6321    0.9163   -2.1316 H         1 <0>         0.0605
     35 H4         -0.9785    2.5726   -0.1970 H         1 <0>         0.0587
     36 H5         -0.3230    2.1654    1.4070 H         1 <0>         0.0929
     37 H6          0.7811    2.5713    0.0711 H         1 <0>         0.0637
     38 H7         -2.1028    0.0483   -0.6252 H         1 <0>         0.1030
     39 H8         -1.2860   -1.1125    0.4488 H         1 <0>         0.0994
     40 H9         -4.0962    0.1927    0.8134 H         1 <0>         0.1242
     41 H10        -3.3837   -1.0454    1.8753 H         1 <0>         0.1199
     42 H11        -3.2755   -0.7442    4.1809 H         1 <0>         0.1587
     43 H12        -4.2287    0.2261    6.1659 H         1 <0>         0.1550
     44 H13        -4.6190    1.9063    0.5339 H         1 <0>         0.1375
     45 H14        -5.9988    3.9282    0.3397 H         1 <0>         0.1640
     46 H15        -6.6776    4.0563    4.4356 H         1 <0>         0.1730
     47 H16        -2.7428    2.2463    0.4426 H         1 <0>         0.3884
     48 H17        -0.2908   -1.6397    1.4149 H         1 <0>         0.1535
     49 H18         3.7709   -1.8360    2.7131 H         1 <0>         0.1369
     50 H19         4.2748    0.2187    1.4553 H         1 <0>         0.1378
     51 H20         3.9834    2.9613   -0.5268 H         1 <0>         0.1019
     52 H21         4.1659    2.2759    1.1058 H         1 <0>         0.0560
     53 H22         4.5708    1.2935   -0.3223 H         1 <0>         0.0558
@<TRIPOS>BOND
     1    1    2 1
     2    1   32 1
     3    1   33 1
     4    1   34 1
     5    2    3 1
     6    2    4 1
     7    2   23 1
     8    3   35 1
     9    3   36 1
    10    3   37 1
    11    4    5 1
    12    4   38 1
    13    4   39 1
    14    5    6 1
    15    5   18 1
    16    5   22 1
    17    6    7 1
    18    6   40 1
    19    6   41 1
    20    7   13 1
    21    7    8 1
    22    8    9 2
    23    8   42 1
    24    9   10 1
    25    9   43 1
    26   10   11 2
    27   10   12 1
    28   12   17 ar
    29   12   13 ar
    30   13   14 ar
    31   14   15 ar
    32   14   44 1
    33   15   16 ar
    34   15   45 1
    35   16   17 ar
    36   17   46 1
    37   18   19 1
    38   18   20 1
    39   18   21 1
    40   22   47 1
    41   23   28 ar
    42   23   24 ar
    43   24   25 ar
    44   24   48 1
    45   25   26 ar
    46   25   31 1
    47   26   27 ar
    48   26   49 1
    49   27   28 ar
    50   27   50 1
    51   28   29 1
    52   29   30 1
    53   30   51 1
    54   30   52 1
    55   30   53 1
@<TRIPOS>MOLECULE
CHEMBL429913
   77    82     0     0     0
SMALL
USER_CHARGES

@<TRIPOS>ATOM
      1 C1         -1.4703    0.1313   -0.9549 C.3       1 <0>        -0.1383
      2 C2         -1.4846   -1.3327   -1.3990 C.3       1 <0>        -0.0406
      3 C3         -1.1034   -2.2277   -0.2181 C.3       1 <0>        -0.1443
      4 C4         -2.8860   -1.7035   -1.8884 C.3       1 <0>        -0.1494
      5 C5         -0.4939   -1.5280   -2.5176 C.ar      1 <0>        -0.0046
      6 C6         -0.9251   -1.9748   -3.7527 C.ar      1 <0>        -0.1409
      7 C7         -0.0163   -2.1540   -4.7788 C.ar      1 <0>        -0.0184
      8 C8          1.3237   -1.8859   -4.5700 C.ar      1 <0>        -0.6904
      9 C9          1.7548   -1.4383   -3.3352 C.ar      1 <0>        -0.0215
     10 C10         0.8453   -1.2550   -2.3104 C.ar      1 <0>        -0.1360
     11 S1          2.4822   -2.1154   -5.8775 S.o2      1 <0>         2.6851
     12 O1          3.7494   -2.3166   -5.2667 O.2       1 <0>        -0.9405
     13 O2          1.9072   -3.0615   -6.7683 O.2       1 <0>        -0.9404
     14 N1          2.5773   -0.6838   -6.7044 N.pl3     1 <0>        -1.0056
     15 C11         1.6750   -0.4295   -7.8319 C.3       1 <0>         0.1082
     16 C12         2.3586    0.5302   -8.8142 C.3       1 <0>        -0.0977
     17 C13         2.6798    1.8102   -8.0728 C.2       1 <0>        -0.0778
     18 C14         2.6152    2.9710   -8.7245 C.2       1 <0>        -0.1179
     19 C15         2.9783    4.1879   -7.9806 C.2       1 <0>         0.0763
     20 C16         3.6577    4.1016   -6.7698 C.2       1 <0>        -0.2554
     21 C17         3.8591    5.3873   -6.3087 C.2       1 <0>         0.0708
     22 N2          3.3503    6.2288   -7.1815 N.2       1 <0>        -0.2586
     23 N3          2.8002    5.4987   -8.2492 N.pl3     1 <0>        -0.2846
     24 C18         2.1794    6.0342   -9.3856 C.ar      1 <0>         0.1097
     25 C19         2.3162    5.4032  -10.6149 C.ar      1 <0>        -0.0942
     26 C20         1.7037    5.9326  -11.7337 C.ar      1 <0>        -0.1305
     27 C21         0.9533    7.0919  -11.6301 C.ar      1 <0>         0.1222
     28 C22         0.8155    7.7227  -10.4049 C.ar      1 <0>        -0.1326
     29 C23         1.4218    7.1934   -9.2827 C.ar      1 <0>        -0.0709
     30 F1          0.3551    7.6085  -12.7259 F         1 <0>        -0.1227
     31 C24         4.0498    2.7699   -6.1859 C.3       1 <0>        -0.0450
     32 C25         3.0133    1.7253   -6.6064 C.3       1 <0>        -0.0460
     33 C26         3.5589    0.3279   -6.3033 C.3       1 <0>         0.1355
     34 C27         1.7365    1.9257   -5.7877 C.3       1 <0>        -0.0016
     35 N4          1.0651    3.1582   -6.2213 N.4       1 <0>        -0.3993
     36 C28         0.1411    2.8691   -7.3477 C.3       1 <0>        -0.0283
     37 C29        -0.8540    4.0559   -7.3035 C.3       1 <0>        -0.1432
     38 C30        -1.0329    4.3008   -5.7876 C.3       1 <0>        -0.1424
     39 C31         0.2181    3.6884   -5.1309 C.3       1 <0>        -0.0128
     40 H1         -0.4719    0.3955   -0.6062 H         1 <0>         0.0591
     41 H2         -1.7418    0.7689   -1.7962 H         1 <0>         0.0533
     42 H3         -2.1869    0.2726   -0.1458 H         1 <0>         0.0673
     43 H4         -1.8200   -2.0864    0.5910 H         1 <0>         0.0675
     44 H5         -1.1137   -3.2707   -0.5345 H         1 <0>         0.0608
     45 H6         -0.1050   -1.9635    0.1306 H         1 <0>         0.0604
     46 H7         -3.1576   -1.0659   -2.7297 H         1 <0>         0.0587
     47 H8         -2.8962   -2.7465   -2.2048 H         1 <0>         0.0629
     48 H9         -3.6026   -1.5622   -1.0793 H         1 <0>         0.0664
     49 H10        -1.9719   -2.1842   -3.9158 H         1 <0>         0.1399
     50 H11        -0.3531   -2.5037   -5.7435 H         1 <0>         0.1403
     51 H12         2.8017   -1.2292   -3.1719 H         1 <0>         0.1403
     52 H13         1.1816   -0.9018   -1.3468 H         1 <0>         0.1347
     53 H14         1.4493   -1.3686   -8.3372 H         1 <0>         0.1128
     54 H15         0.7519    0.0200   -7.4660 H         1 <0>         0.0631
     55 H16         3.2783    0.0806   -9.1884 H         1 <0>         0.1116
     56 H17         1.6879    0.7449   -9.6462 H         1 <0>         0.1056
     57 H18         2.3086    3.0168   -9.7591 H         1 <0>         0.1567
     58 H19         4.3514    5.6565   -5.3859 H         1 <0>         0.2041
     59 H20         2.9016    4.4993  -10.6962 H         1 <0>         0.1432
     60 H21         1.8102    5.4423  -12.6901 H         1 <0>         0.1548
     61 H22         0.2302    8.6270  -10.3263 H         1 <0>         0.1542
     62 H23         1.3105    7.6832   -8.3266 H         1 <0>         0.1475
     63 H24         5.0321    2.4816   -6.5601 H         1 <0>         0.1095
     64 H25         4.0767    2.8411   -5.0985 H         1 <0>         0.1039
     65 H26         3.7567    0.2385   -5.2351 H         1 <0>         0.1023
     66 H27         4.4849    0.1753   -6.8578 H         1 <0>         0.0997
     67 H28         1.0704    1.0764   -5.9397 H         1 <0>         0.1358
     68 H29         1.9910    2.0031   -4.7306 H         1 <0>         0.1383
     69 H30         0.6811    2.8549   -8.2944 H         1 <0>         0.1402
     70 H31        -0.3789    1.9249   -7.1860 H         1 <0>         0.1338
     71 H32        -0.4284    4.9344   -7.7885 H         1 <0>         0.0903
     72 H33        -1.8027    3.7811   -7.7645 H         1 <0>         0.1185
     73 H34        -1.0840    5.3697   -5.5805 H         1 <0>         0.1034
     74 H35        -1.9322    3.8014   -5.4272 H         1 <0>         0.1059
     75 H36        -0.0727    2.8799   -4.4601 H         1 <0>         0.1304
     76 H37         0.7609    4.4556   -4.5786 H         1 <0>         0.1278
     77 H38         1.7477    3.8478   -6.4982 H         1 <0>         0.4198
@<TRIPOS>BOND
     1    1    2 1
     2    1   40 1
     3    1   41 1
     4    1   42 1
     5    2    3 1
     6    2    4 1
     7    2    5 1
     8    3   43 1
     9    3   44 1
    10    3   45 1
    11    4   46 1
    12    4   47 1
    13    4   48 1
    14    5   10 ar
    15    5    6 ar
    16    6    7 ar
    17    6   49 1
    18    7    8 ar
    19    7   50 1
    20    8    9 ar
    21    8   11 1
    22    9   10 ar
    23    9   51 1
    24   10   52 1
    25   11   12 2
    26   11   13 2
    27   11   14 1
    28   14   33 1
    29   14   15 1
    30   15   16 1
    31   15   53 1
    32   15   54 1
    33   16   17 1
    34   16   55 1
    35   16   56 1
    36   17   32 1
    37   17   18 2
    38   18   19 1
    39   18   57 1
    40   19   23 1
    41   19   20 2
    42   20   21 1
    43   20   31 1
    44   21   22 2
    45   21   58 1
    46   22   23 1
    47   23   24 1
    48   24   29 ar
    49   24   25 ar
    50   25   26 ar
    51   25   59 1
    52   26   27 ar
    53   26   60 1
    54   27   28 ar
    55   27   30 1
    56   28   29 ar
    57   28   61 1
    58   29   62 1
    59   31   32 1
    60   31   63 1
    61   31   64 1
    62   32   33 1
    63   32   34 1
    64   33   65 1
    65   33   66 1
    66   34   35 1
    67   34   67 1
    68   34   68 1
    69   35   39 1
    70   35   36 1
    71   35   77 1
    72   36   37 1
    73   36   69 1
    74   36   70 1
    75   37   38 1
    76   37   71 1
    77   37   72 1
    78   38   39 1
    79   38   73 1
    80   38   74 1
    81   39   75 1
    82   39   76 1
@<TRIPOS>MOLECULE
CHEMBL305393
   53    57     0     0     0
SMALL
USER_CHARGES

@<TRIPOS>ATOM
      1 C1         -0.0173    1.4248    0.0099 C.3       1 <0>         0.0203
      2 O1          0.0021   -0.0041    0.0020 O.3       1 <0>        -0.3065
      3 C2         -1.1999   -0.6373    0.0101 C.ar      1 <0>         0.1628
      4 C3         -2.3766    0.0983    0.0195 C.ar      1 <0>        -0.2288
      5 C4         -3.5984   -0.5485    0.0297 C.ar      1 <0>        -0.0519
      6 C5         -3.6629   -1.9302    0.0428 C.ar      1 <0>        -0.1737
      7 C6         -2.4989   -2.6793    0.0401 C.ar      1 <0>         0.1599
      8 C7         -1.2590   -2.0276    0.0032 C.ar      1 <0>        -0.1318
      9 C8         -0.0335   -2.8588   -0.0287 C.ar      1 <0>        -0.0845
     10 C9          1.2228   -2.3154    0.2107 C.ar      1 <0>        -0.0489
     11 C10         2.3353   -3.1323    0.1895 C.ar      1 <0>        -0.1936
     12 C11         2.1965   -4.4914   -0.0681 C.ar      1 <0>         0.2196
     13 C12         0.9400   -5.0339   -0.3152 C.ar      1 <0>        -0.1704
     14 C13        -0.1714   -4.2215   -0.3057 C.ar      1 <0>        -0.0700
     15 C14        -1.5376   -4.7727   -0.6192 C.3       1 <0>         0.1841
     16 O2         -2.5439   -4.0345    0.0849 O.3       1 <0>        -0.3020
     17 C15        -1.6008   -6.2178   -0.1962 C.ar      1 <0>        -0.0811
     18 C16        -1.9186   -6.5425    1.1094 C.ar      1 <0>        -0.0868
     19 C17        -1.9766   -7.8680    1.4974 C.ar      1 <0>        -0.1201
     20 C18        -1.7173   -8.8688    0.5798 C.ar      1 <0>        -0.1138
     21 C19        -1.4004   -8.5441   -0.7260 C.ar      1 <0>        -0.1198
     22 C20        -1.3466   -7.2187   -1.1151 C.ar      1 <0>        -0.1073
     23 N1          3.3240   -5.3156   -0.0791 N.pl3     1 <0>        -0.7415
     24 C21         4.6492   -4.7474    0.1804 C.3       1 <0>         0.1673
     25 C22         5.6860   -5.8389    0.1112 C.ar      1 <0>        -0.1096
     26 C23         6.0171   -6.5508    1.2489 C.ar      1 <0>        -0.1003
     27 C24         6.9682   -7.5520    1.1854 C.ar      1 <0>        -0.1218
     28 C25         7.5877   -7.8416   -0.0160 C.ar      1 <0>        -0.1114
     29 C26         7.2559   -7.1303   -1.1539 C.ar      1 <0>        -0.1219
     30 C27         6.3017   -6.1320   -1.0913 C.ar      1 <0>        -0.1005
     31 H1          1.0053    1.8021    0.0021 H         1 <0>         0.1014
     32 H2         -0.5445    1.7859   -0.8732 H         1 <0>         0.0576
     33 H3         -0.5275    1.7763    0.9067 H         1 <0>         0.0578
     34 H4         -2.3378    1.1776    0.0186 H         1 <0>         0.1324
     35 H5         -4.5104    0.0300    0.0279 H         1 <0>         0.1334
     36 H6         -4.6227   -2.4252    0.0554 H         1 <0>         0.1345
     37 H7          1.3283   -1.2595    0.4119 H         1 <0>         0.1464
     38 H8          3.3144   -2.7153    0.3734 H         1 <0>         0.1234
     39 H9          0.8363   -6.0903   -0.5143 H         1 <0>         0.1261
     40 H10        -1.7152   -4.7066   -1.6926 H         1 <0>         0.0901
     41 H11        -2.1212   -5.7606    1.8263 H         1 <0>         0.1262
     42 H12        -2.2242   -8.1216    2.5176 H         1 <0>         0.1242
     43 H13        -1.7619   -9.9043    0.8831 H         1 <0>         0.1232
     44 H14        -1.1974   -9.3260   -1.4428 H         1 <0>         0.1253
     45 H15        -1.1026   -6.9651   -2.1361 H         1 <0>         0.1244
     46 H16         3.2296   -6.2641   -0.2585 H         1 <0>         0.4005
     47 H17         4.8715   -3.9871   -0.5683 H         1 <0>         0.0688
     48 H18         4.6629   -4.2956    1.1723 H         1 <0>         0.0686
     49 H19         5.5331   -6.3246    2.1875 H         1 <0>         0.1234
     50 H20         7.2274   -8.1077    2.0744 H         1 <0>         0.1245
     51 H21         8.3313   -8.6233   -0.0654 H         1 <0>         0.1239
     52 H22         7.7402   -7.3563   -2.0924 H         1 <0>         0.1245
     53 H23         6.0398   -5.5788   -1.9811 H         1 <0>         0.1235
@<TRIPOS>BOND
     1    1    2 1
     2    1   31 1
     3    1   32 1
     4    1   33 1
     5    2    3 1
     6    3    8 ar
     7    3    4 ar
     8    4    5 ar
     9    4   34 1
    10    5    6 ar
    11    5   35 1
    12    6    7 ar
    13    6   36 1
    14    7   16 1
    15    7    8 ar
    16    8    9 1
    17    9   14 ar
    18    9   10 ar
    19   10   11 ar
    20   10   37 1
    21   11   12 ar
    22   11   38 1
    23   12   13 ar
    24   12   23 1
    25   13   14 ar
    26   13   39 1
    27   14   15 1
    28   15   16 1
    29   15   17 1
    30   15   40 1
    31   17   22 ar
    32   17   18 ar
    33   18   19 ar
    34   18   41 1
    35   19   20 ar
    36   19   42 1
    37   20   21 ar
    38   20   43 1
    39   21   22 ar
    40   21   44 1
    41   22   45 1
    42   23   24 1
    43   23   46 1
    44   24   25 1
    45   24   47 1
    46   24   48 1
    47   25   30 ar
    48   25   26 ar
    49   26   27 ar
    50   26   49 1
    51   27   28 ar
    52   27   50 1
    53   28   29 ar
    54   28   51 1
    55   29   30 ar
    56   29   52 1
    57   30   53 1
@<TRIPOS>MOLECULE
CHEMBL305393__1
   53    57     0     0     0
SMALL
USER_CHARGES

@<TRIPOS>ATOM
      1 C1         -0.0173    1.4248    0.0099 C.3       1 <0>         0.0202
      2 O1          0.0021   -0.0041    0.0020 O.3       1 <0>        -0.3060
      3 C2         -1.1999   -0.6373    0.0101 C.ar      1 <0>         0.1630
      4 C3         -2.3766    0.0983    0.0195 C.ar      1 <0>        -0.2302
      5 C4         -3.5984   -0.5485    0.0307 C.ar      1 <0>        -0.0510
      6 C5         -3.6628   -1.9302    0.0437 C.ar      1 <0>        -0.1783
      7 C6         -2.4989   -2.6793    0.0392 C.ar      1 <0>         0.1628
      8 C7         -1.2590   -2.0276    0.0032 C.ar      1 <0>        -0.1331
      9 C8         -0.0335   -2.8588   -0.0287 C.ar      1 <0>        -0.0817
     10 C9          1.2228   -2.3154    0.2107 C.ar      1 <0>        -0.0480
     11 C10         2.3353   -3.1323    0.1895 C.ar      1 <0>        -0.1937
     12 C11         2.1966   -4.4912   -0.0690 C.ar      1 <0>         0.2213
     13 C12         0.9401   -5.0337   -0.3162 C.ar      1 <0>        -0.1743
     14 C13        -0.1714   -4.2215   -0.3057 C.ar      1 <0>        -0.0660
     15 C14        -1.5376   -4.7727   -0.6192 C.3       1 <0>         0.1832
     16 O2         -2.5439   -4.0345    0.0831 O.3       1 <0>        -0.2977
     17 C15        -1.7832   -4.6813   -2.1032 C.ar      1 <0>        -0.1116
     18 C16        -2.1684   -3.4795   -2.6673 C.ar      1 <0>        -0.1054
     19 C17        -2.3937   -3.3956   -4.0285 C.ar      1 <0>        -0.1175
     20 C18        -2.2333   -4.5134   -4.8258 C.ar      1 <0>        -0.1145
     21 C19        -1.8472   -5.7149   -4.2619 C.ar      1 <0>        -0.1198
     22 C20        -1.6178   -5.7978   -2.9013 C.ar      1 <0>        -0.1027
     23 N1          3.3242   -5.3152   -0.0809 N.pl3     1 <0>        -0.7417
     24 C21         4.6494   -4.7471    0.1786 C.3       1 <0>         0.1672
     25 C22         5.6863   -5.8384    0.1083 C.ar      1 <0>        -0.1098
     26 C23         6.0179   -6.5511    1.2454 C.ar      1 <0>        -0.1004
     27 C24         6.9690   -7.5521    1.1809 C.ar      1 <0>        -0.1218
     28 C25         7.5883   -7.8407   -0.0208 C.ar      1 <0>        -0.1113
     29 C26         7.2560   -7.1287   -1.1581 C.ar      1 <0>        -0.1219
     30 C27         6.3018   -6.1306   -1.0945 C.ar      1 <0>        -0.1005
     31 H1          1.0053    1.8021    0.0021 H         1 <0>         0.1015
     32 H2         -0.5445    1.7859   -0.8732 H         1 <0>         0.0576
     33 H3         -0.5275    1.7763    0.9067 H         1 <0>         0.0581
     34 H4         -2.3378    1.1776    0.0186 H         1 <0>         0.1327
     35 H5         -4.5104    0.0300    0.0295 H         1 <0>         0.1337
     36 H6         -4.6226   -2.4252    0.0570 H         1 <0>         0.1350
     37 H7          1.3283   -1.2595    0.4119 H         1 <0>         0.1464
     38 H8          3.3144   -2.7153    0.3734 H         1 <0>         0.1235
     39 H9          0.8365   -6.0900   -0.5159 H         1 <0>         0.1235
     40 H10        -1.5833   -5.8179   -0.3132 H         1 <0>         0.1305
     41 H11        -2.2937   -2.6061   -2.0443 H         1 <0>         0.1269
     42 H12        -2.6953   -2.4568   -4.4691 H         1 <0>         0.1225
     43 H13        -2.4100   -4.4480   -5.8893 H         1 <0>         0.1230
     44 H14        -1.7222   -6.5883   -4.8848 H         1 <0>         0.1245
     45 H15        -1.3125   -6.7357   -2.4612 H         1 <0>         0.1236
     46 H16         3.2299   -6.2637   -0.2610 H         1 <0>         0.4006
     47 H17         4.8714   -3.9862   -0.5696 H         1 <0>         0.0686
     48 H18         4.6634   -4.2960    1.1708 H         1 <0>         0.0690
     49 H19         5.5341   -6.3255    2.1843 H         1 <0>         0.1237
     50 H20         7.2286   -8.1084    2.0695 H         1 <0>         0.1246
     51 H21         8.3319   -8.6223   -0.0710 H         1 <0>         0.1239
     52 H22         7.7400   -7.3540   -2.0969 H         1 <0>         0.1245
     53 H23         6.0395   -5.5768   -1.9838 H         1 <0>         0.1234
@<TRIPOS>BOND
     1    1    2 1
     2    1   31 1
     3    1   32 1
     4    1   33 1
     5    2    3 1
     6    3    8 ar
     7    3    4 ar
     8    4    5 ar
     9    4   34 1
    10    5    6 ar
    11    5   35 1
    12    6    7 ar
    13    6   36 1
    14    7   16 1
    15    7    8 ar
    16    8    9 1
    17    9   14 ar
    18    9   10 ar
    19   10   11 ar
    20   10   37 1
    21   11   12 ar
    22   11   38 1
    23   12   13 ar
    24   12   23 1
    25   13   14 ar
    26   13   39 1
    27   14   15 1
    28   15   16 1
    29   15   17 1
    30   15   40 1
    31   17   22 ar
    32   17   18 ar
    33   18   19 ar
    34   18   41 1
    35   19   20 ar
    36   19   42 1
    37   20   21 ar
    38   20   43 1
    39   21   22 ar
    40   21   44 1
    41   22   45 1
    42   23   24 1
    43   23   46 1
    44   24   25 1
    45   24   47 1
    46   24   48 1
    47   25   30 ar
    48   25   26 ar
    49   26   27 ar
    50   26   49 1
    51   27   28 ar
    52   27   50 1
    53   28   29 ar
    54   28   51 1
    55   29   30 ar
    56   29   52 1
    57   30   53 1
@<TRIPOS>MOLECULE
CHEMBL65690
   51    54     0     0     0
SMALL
USER_CHARGES

@<TRIPOS>ATOM
      1 C1         -0.0184    1.5049    0.0103 C.3       1 <0>        -0.1184
      2 C2          0.0021   -0.0041    0.0020 C.2       1 <0>        -0.0592
      3 C3          0.0014   -0.5999   -1.1888 C.2       1 <0>        -0.1676
      4 C4         -0.0635   -2.0894   -1.3577 C.3       1 <0>         0.2138
      5 N1          0.3261   -2.7719   -0.1254 N.pl3     1 <0>        -0.7343
      6 C5          0.0865   -2.1995    1.1176 C.ar      1 <0>         0.2270
      7 C6          0.0245   -0.7916    1.2411 C.ar      1 <0>        -0.0706
      8 C7          0.0508   -0.2612    2.5235 C.ar      1 <0>        -0.0163
      9 C8         -0.3602   -1.0837    3.6157 C.ar      1 <0>        -0.0985
     10 C9         -0.3930   -2.4566    3.4612 C.ar      1 <0>        -0.0504
     11 C10        -0.1127   -3.0078    2.2255 C.ar      1 <0>        -0.1834
     12 C11        -0.7395   -0.4024    4.8705 C.ar      1 <0>        -0.0628
     13 C12        -1.1562   -1.1299    5.9818 C.ar      1 <0>        -0.1181
     14 C13        -1.5131   -0.4722    7.1440 C.ar      1 <0>         0.0786
     15 C14        -1.4561    0.9113    7.2070 C.ar      1 <0>        -0.1219
     16 C15        -1.0420    1.6422    6.1107 C.ar      1 <0>        -0.1067
     17 C16        -0.6767    0.9966    4.9406 C.ar      1 <0>         0.1078
     18 O1         -0.2477    1.7217    3.8709 O.3       1 <0>        -0.2394
     19 C17         0.5238    1.0577    2.9589 C.2       1 <0>         0.0821
     20 C18         1.7124    1.5785    2.5614 C.2       1 <0>        -0.1059
     21 C19         2.1257    2.8996    3.0320 C.2       1 <0>        -0.1380
     22 C20         3.2947    3.4118    2.6410 C.2       1 <0>        -0.1069
     23 C21         4.1886    2.6282    1.7147 C.3       1 <0>        -0.1266
     24 C22         3.7207    4.7735    3.1260 C.3       1 <0>        -0.1199
     25 F1         -1.9173   -1.1793    8.2221 F         1 <0>        -0.1368
     26 C23         0.8837   -2.5096   -2.4879 C.3       1 <0>        -0.1546
     27 C24        -1.4935   -2.4954   -1.7327 C.3       1 <0>        -0.1604
     28 H1          1.0042    1.8822    0.0026 H         1 <0>         0.0717
     29 H2         -0.5456    1.8660   -0.8727 H         1 <0>         0.0672
     30 H3         -0.5286    1.8565    0.9071 H         1 <0>         0.0694
     31 H4          0.0506    0.0249   -2.0746 H         1 <0>         0.1273
     32 H5          0.7560   -3.6506   -0.1765 H         1 <0>         0.4048
     33 H6         -0.6372   -3.0968    4.2962 H         1 <0>         0.1324
     34 H7         -0.0503   -4.0816    2.1176 H         1 <0>         0.1294
     35 H8         -1.2019   -2.2084    5.9412 H         1 <0>         0.1419
     36 H9         -1.7330    1.4180    8.1189 H         1 <0>         0.1457
     37 H10        -1.0006    2.7205    6.1676 H         1 <0>         0.1456
     38 H11         2.3530    1.0169    1.8976 H         1 <0>         0.1400
     39 H12         1.4851    3.4611    3.6958 H         1 <0>         0.1204
     40 H13         3.9435    2.8720    0.6810 H         1 <0>         0.0709
     41 H14         5.2296    2.8844    1.9115 H         1 <0>         0.0658
     42 H15         4.0391    1.5615    1.8817 H         1 <0>         0.0661
     43 H16         2.9518    5.1827    3.7814 H         1 <0>         0.0637
     44 H17         4.6580    4.6867    3.6756 H         1 <0>         0.0692
     45 H18         3.8603    5.4361    2.2719 H         1 <0>         0.0693
     46 H19         1.9023   -2.2136   -2.2372 H         1 <0>         0.0633
     47 H20         0.8405   -3.5913   -2.6149 H         1 <0>         0.0633
     48 H21         0.5816   -2.0225   -3.4150 H         1 <0>         0.0740
     49 H22        -1.7759   -2.0098   -2.6668 H         1 <0>         0.0673
     50 H23        -1.5436   -3.5772   -1.8560 H         1 <0>         0.0613
     51 H24        -2.1778   -2.1878   -0.9420 H         1 <0>         0.0571
@<TRIPOS>BOND
     1    1    2 1
     2    1   28 1
     3    1   29 1
     4    1   30 1
     5    2    7 1
     6    2    3 2
     7    3    4 1
     8    3   31 1
     9    4    5 1
    10    4   26 1
    11    4   27 1
    12    5    6 1
    13    5   32 1
    14    6   11 ar
    15    6    7 ar
    16    7    8 ar
    17    8   19 1
    18    8    9 ar
    19    9   10 ar
    20    9   12 1
    21   10   11 ar
    22   10   33 1
    23   11   34 1
    24   12   17 ar
    25   12   13 ar
    26   13   14 ar
    27   13   35 1
    28   14   15 ar
    29   14   25 1
    30   15   16 ar
    31   15   36 1
    32   16   17 ar
    33   16   37 1
    34   17   18 1
    35   18   19 1
    36   19   20 2
    37   20   21 1
    38   20   38 1
    39   21   22 2
    40   21   39 1
    41   22   23 1
    42   22   24 1
    43   23   40 1
    44   23   41 1
    45   23   42 1
    46   24   43 1
    47   24   44 1
    48   24   45 1
    49   26   46 1
    50   26   47 1
    51   26   48 1
    52   27   49 1
    53   27   50 1
    54   27   51 1
@<TRIPOS>MOLECULE
CHEMBL194745
   50    52     0     0     0
SMALL
USER_CHARGES

@<TRIPOS>ATOM
      1 C1          0.8283    0.0027    0.5675 C.3       1 <0>        -0.1527
      2 C2         -0.3109   -0.2556   -0.4205 C.3       1 <0>        -0.0212
      3 C3          0.0472   -1.4467   -1.3117 C.3       1 <0>        -0.1362
      4 C4         -1.5953   -0.5642    0.3514 C.3       1 <0>        -0.1400
      5 C5         -1.6381    0.2783    1.6278 C.3       1 <0>         0.0858
      6 C6         -2.8279   -0.1284    2.4585 C.2       1 <0>         0.4904
      7 O1         -3.7930   -0.6361    1.9278 O.2       1 <0>        -0.4760
      8 N1         -2.8194    0.0720    3.7913 N.am      1 <0>        -0.6563
      9 C7         -3.8658   -0.4113    4.5756 C.ar      1 <0>         0.1860
     10 C8         -4.4934   -1.6064    4.2369 C.ar      1 <0>        -0.1293
     11 C9         -5.5273   -2.0891    5.0072 C.ar      1 <0>        -0.0080
     12 C10        -5.9476   -1.3759    6.1329 C.ar      1 <0>        -0.2094
     13 C11        -5.3117   -0.1746    6.4676 C.ar      1 <0>        -0.0792
     14 C12        -4.2779    0.2997    5.7000 C.ar      1 <0>        -0.1215
     15 C13        -5.9954    0.3289    7.7135 C.3       1 <0>         0.0911
     16 O2         -7.0094   -0.6252    8.0402 O.3       1 <0>        -0.3133
     17 C14        -6.9967   -1.6193    7.1363 C.2       1 <0>         0.5232
     18 O3         -7.7420   -2.5789    7.1459 O.2       1 <0>        -0.4468
     19 C15        -1.7562    1.7583    1.2582 C.3       1 <0>         0.4692
     20 F1         -2.8540    1.9412    0.4106 F         1 <0>        -0.1594
     21 F2         -1.9330    2.5166    2.4205 F         1 <0>        -0.1754
     22 F3         -0.5894    2.1705    0.6056 F         1 <0>        -0.1380
     23 O4         -0.4397    0.0687    2.3774 O.3       1 <0>        -0.5144
     24 C16        -0.5206    0.9669   -1.2763 C.ar      1 <0>        -0.0610
     25 C17        -1.7900    1.2972   -1.7106 C.ar      1 <0>        -0.1600
     26 C18        -1.9830    2.4204   -2.4964 C.ar      1 <0>         0.1011
     27 C19        -0.9045    3.2143   -2.8486 C.ar      1 <0>        -0.1460
     28 C20         0.3657    2.8864   -2.4159 C.ar      1 <0>        -0.1115
     29 C21         0.5597    1.7642   -1.6236 C.ar      1 <0>         0.1059
     30 O5          1.8085    1.4436   -1.1924 O.3       1 <0>        -0.4808
     31 F4         -3.2248    2.7422   -2.9203 F         1 <0>        -0.1360
     32 H1          1.7747    0.0435    0.0283 H         1 <0>         0.0726
     33 H2          0.6593    0.9514    1.0770 H         1 <0>         0.0924
     34 H3          0.8626   -0.8027    1.3012 H         1 <0>         0.0527
     35 H4          0.1131   -2.3487   -0.7033 H         1 <0>         0.0653
     36 H5         -0.7234   -1.5765   -2.0716 H         1 <0>         0.0593
     37 H6          1.0068   -1.2634   -1.7949 H         1 <0>         0.0623
     38 H7         -2.4587   -0.3265   -0.2700 H         1 <0>         0.1068
     39 H8         -1.6165   -1.6220    0.6134 H         1 <0>         0.1029
     40 H9         -2.0852    0.5525    4.2048 H         1 <0>         0.4243
     41 H10        -4.1684   -2.1570    3.3665 H         1 <0>         0.1473
     42 H11        -6.0127   -3.0167    4.7418 H         1 <0>         0.1443
     43 H12        -3.7873    1.2247    5.9651 H         1 <0>         0.1432
     44 H13        -5.2764    0.4032    8.5294 H         1 <0>         0.1203
     45 H14        -6.4467    1.3028    7.5237 H         1 <0>         0.1198
     46 H15        -0.2995   -0.8496    2.6462 H         1 <0>         0.3990
     47 H16        -2.6320    0.6786   -1.4372 H         1 <0>         0.1436
     48 H17        -1.0563    4.0899   -3.4623 H         1 <0>         0.1390
     49 H18         1.2067    3.5055   -2.6911 H         1 <0>         0.1391
     50 H19         2.2956    0.8639   -1.7939 H         1 <0>         0.3855
@<TRIPOS>BOND
     1    1    2 1
     2    1   32 1
     3    1   33 1
     4    1   34 1
     5    2    3 1
     6    2    4 1
     7    2   24 1
     8    3   35 1
     9    3   36 1
    10    3   37 1
    11    4    5 1
    12    4   38 1
    13    4   39 1
    14    5    6 1
    15    5   19 1
    16    5   23 1
    17    6    7 2
    18    6    8 am
    19    8    9 1
    20    8   40 1
    21    9   14 ar
    22    9   10 ar
    23   10   11 ar
    24   10   41 1
    25   11   12 ar
    26   11   42 1
    27   12   17 1
    28   12   13 ar
    29   13   14 ar
    30   13   15 1
    31   14   43 1
    32   15   16 1
    33   15   44 1
    34   15   45 1
    35   16   17 1
    36   17   18 2
    37   19   20 1
    38   19   21 1
    39   19   22 1
    40   23   46 1
    41   24   29 ar
    42   24   25 ar
    43   25   26 ar
    44   25   47 1
    45   26   27 ar
    46   26   31 1
    47   27   28 ar
    48   27   48 1
    49   28   29 ar
    50   28   49 1
    51   29   30 1
    52   30   50 1
@<TRIPOS>MOLECULE
CHEMBL194745__1
   50    52     0     0     0
SMALL
USER_CHARGES

@<TRIPOS>ATOM
      1 C1          0.2382    0.3718   -1.4975 C.3       1 <0>        -0.1375
      2 C2         -0.1191    0.5431   -0.0197 C.3       1 <0>        -0.0164
      3 C3         -0.2409    2.0331    0.3061 C.3       1 <0>        -0.1667
      4 C4         -1.4515   -0.1522    0.2669 C.3       1 <0>        -0.1446
      5 C5         -2.1583    0.5568    1.4239 C.3       1 <0>         0.0854
      6 C6         -3.5207   -0.0533    1.6297 C.2       1 <0>         0.4898
      7 O1         -3.7329   -1.1951    1.2804 O.2       1 <0>        -0.4736
      8 N1         -4.5035    0.6699    2.2021 N.am      1 <0>        -0.6567
      9 C7         -5.7289    0.0727    2.4941 C.ar      1 <0>         0.1846
     10 C8         -5.7745   -1.2581    2.8990 C.ar      1 <0>        -0.1276
     11 C9         -6.9813   -1.8538    3.1887 C.ar      1 <0>        -0.0076
     12 C10        -8.1644   -1.1189    3.0757 C.ar      1 <0>        -0.2079
     13 C11        -8.1111    0.2191    2.6679 C.ar      1 <0>        -0.0806
     14 C12        -6.9054    0.8102    2.3856 C.ar      1 <0>        -0.1207
     15 C13        -9.5367    0.7097    2.6514 C.3       1 <0>         0.0917
     16 O2        -10.3548   -0.3906    3.0580 O.3       1 <0>        -0.3135
     17 C14        -9.5778   -1.4580    3.3079 C.2       1 <0>         0.5230
     18 O3         -9.9827   -2.5440    3.6725 O.2       1 <0>        -0.4457
     19 C15        -1.3304    0.3988    2.7008 C.3       1 <0>         0.4719
     20 F1         -0.0520    0.9289    2.4964 F         1 <0>        -0.1413
     21 F2         -1.9561    1.0813    3.7496 F         1 <0>        -0.1694
     22 F3         -1.2263   -0.9584    3.0241 F         1 <0>        -0.1581
     23 O4         -2.2996    1.9452    1.1166 O.3       1 <0>        -0.5168
     24 C16         0.9614   -0.0708    0.8328 C.ar      1 <0>        -0.0466
     25 C17         0.6955   -1.2061    1.5741 C.ar      1 <0>        -0.1836
     26 C18         1.6880   -1.7706    2.3569 C.ar      1 <0>         0.1054
     27 C19         2.9482   -1.1982    2.3985 C.ar      1 <0>        -0.1492
     28 C20         3.2168   -0.0632    1.6584 C.ar      1 <0>        -0.1060
     29 C21         2.2248    0.5002    0.8691 C.ar      1 <0>         0.0959
     30 O5          2.4894    1.6140    0.1358 O.3       1 <0>        -0.4877
     31 F4          1.4267   -2.8806    3.0812 F         1 <0>        -0.1354
     32 H1          1.1404    0.9408   -1.7215 H         1 <0>         0.0770
     33 H2          0.4120   -0.6832   -1.7093 H         1 <0>         0.0565
     34 H3         -0.5834    0.7357   -2.1145 H         1 <0>         0.0606
     35 H4         -1.0649    2.4633   -0.2631 H         1 <0>         0.0666
     36 H5         -0.4316    2.1575    1.3721 H         1 <0>         0.0942
     37 H6          0.6871    2.5399    0.0415 H         1 <0>         0.0585
     38 H7         -2.0807   -0.1124   -0.6223 H         1 <0>         0.1049
     39 H8         -1.2680   -1.1924    0.5359 H         1 <0>         0.1091
     40 H9         -4.3582    1.6059    2.4110 H         1 <0>         0.4241
     41 H10        -4.8597   -1.8257    2.9858 H         1 <0>         0.1471
     42 H11        -7.0136   -2.8867    3.5023 H         1 <0>         0.1449
     43 H12        -6.8690    1.8442    2.0760 H         1 <0>         0.1431
     44 H13        -9.6538    1.5393    3.3487 H         1 <0>         0.1200
     45 H14        -9.8106    1.0263    1.6450 H         1 <0>         0.1194
     46 H15        -2.8146    2.1207    0.3172 H         1 <0>         0.3994
     47 H16        -0.2871   -1.6531    1.5431 H         1 <0>         0.1536
     48 H17         3.7214   -1.6392    3.0102 H         1 <0>         0.1393
     49 H18         4.1997    0.3832    1.6914 H         1 <0>         0.1394
     50 H19         2.3174    2.4427    0.6034 H         1 <0>         0.3880
@<TRIPOS>BOND
     1    1    2 1
     2    1   32 1
     3    1   33 1
     4    1   34 1
     5    2    3 1
     6    2    4 1
     7    2   24 1
     8    3   35 1
     9    3   36 1
    10    3   37 1
    11    4    5 1
    12    4   38 1
    13    4   39 1
    14    5    6 1
    15    5   19 1
    16    5   23 1
    17    6    7 2
    18    6    8 am
    19    8    9 1
    20    8   40 1
    21    9   14 ar
    22    9   10 ar
    23   10   11 ar
    24   10   41 1
    25   11   12 ar
    26   11   42 1
    27   12   17 1
    28   12   13 ar
    29   13   14 ar
    30   13   15 1
    31   14   43 1
    32   15   16 1
    33   15   44 1
    34   15   45 1
    35   16   17 1
    36   17   18 2
    37   19   20 1
    38   19   21 1
    39   19   22 1
    40   23   46 1
    41   24   29 ar
    42   24   25 ar
    43   25   26 ar
    44   25   47 1
    45   26   27 ar
    46   26   31 1
    47   27   28 ar
    48   27   48 1
    49   28   29 ar
    50   28   49 1
    51   29   30 1
    52   30   50 1
@<TRIPOS>MOLECULE
CHEMBL455662
   58    60     0     0     0
SMALL
USER_CHARGES

@<TRIPOS>ATOM
      1 C1         -1.0370    1.6634    0.1835 C.3       1 <0>        -0.1771
      2 C2         -0.8176    0.1493    0.1924 C.3       1 <0>         0.1067
      3 N1         -2.1046   -0.5316    0.0297 N.am      1 <0>        -0.5966
      4 C3         -2.5965   -0.8575   -1.3112 C.3       1 <0>         0.0893
      5 C4         -1.9906   -2.1861   -1.7678 C.3       1 <0>         0.0657
      6 C5         -2.3916   -2.4575   -3.2192 C.3       1 <0>         0.0969
      7 N2         -1.7283   -3.6762   -3.6893 N.am      1 <0>        -0.7251
      8 C6         -1.9241   -4.1059   -4.9517 C.2       1 <0>         0.6117
      9 O1         -2.6518   -3.4815   -5.7009 O.2       1 <0>        -0.5641
     10 C7         -1.2596   -5.3267   -5.4227 C.2       1 <0>        -0.3688
     11 C8         -0.3951   -6.1580   -4.6716 C.2       1 <0>         0.1255
     12 N3         -0.0090   -7.1409   -5.4355 N.2       1 <0>        -0.2928
     13 N4         -0.5931   -6.9999   -6.6989 N.pl3     1 <0>        -0.3496
     14 C9         -1.3648   -5.8907   -6.6922 C.2       1 <0>         0.4457
     15 N5         -2.1138   -5.4064   -7.7453 N.pl3     1 <0>        -0.8253
     16 C10        -0.4124   -7.8660   -7.7866 C.ar      1 <0>         0.1459
     17 C11        -1.4593   -8.1042   -8.6668 C.ar      1 <0>        -0.1195
     18 C12        -1.2794   -8.9577   -9.7376 C.ar      1 <0>        -0.1249
     19 C13        -0.0558   -9.5758   -9.9335 C.ar      1 <0>         0.0992
     20 C14         0.9895   -9.3399   -9.0563 C.ar      1 <0>        -0.1279
     21 C15         0.8154   -8.4822   -7.9879 C.ar      1 <0>        -0.0778
     22 F1          0.1183  -10.4104  -10.9815 F         1 <0>        -0.1317
     23 C16        -2.5084   -3.3161   -0.8757 C.3       1 <0>         0.4671
     24 F2         -3.9072   -3.2940   -0.8599 F         1 <0>        -0.1594
     25 F3         -2.0672   -4.5454   -1.3770 F         1 <0>        -0.1795
     26 F4         -2.0245   -3.1422    0.4253 F         1 <0>        -0.1558
     27 O2         -0.5664   -2.1181   -1.6719 O.3       1 <0>        -0.5260
     28 C17        -2.8360   -0.8581    1.1136 C.2       1 <0>         0.5738
     29 O3         -3.8507   -1.5156    0.9866 O.2       1 <0>        -0.4999
     30 C18        -2.4048   -0.4173    2.4556 C.ar      1 <0>        -0.1043
     31 C19        -2.9587    0.7302    3.0294 C.ar      1 <0>         0.0017
     32 C20        -2.5507    1.1359    4.2848 C.ar      1 <0>        -0.1066
     33 C21        -1.5960    0.4097    4.9739 C.ar      1 <0>        -0.0773
     34 C22        -1.0428   -0.7270    4.4123 C.ar      1 <0>        -0.1064
     35 C23        -1.4450   -1.1487    3.1604 C.ar      1 <0>        -0.0064
     36 Cl1        -0.7550   -2.5799    2.4608 Cl        1 <0>        -0.0234
     37 Cl2        -4.1561    1.6438    2.1661 Cl        1 <0>        -0.0400
     38 H1         -0.0795    2.1700    0.3045 H         1 <0>         0.0713
     39 H2         -1.4876    1.9597   -0.7638 H         1 <0>         0.0615
     40 H3         -1.7002    1.9393    1.0033 H         1 <0>         0.0592
     41 H4         -0.1544   -0.1266   -0.6275 H         1 <0>         0.0892
     42 H5         -0.3670   -0.1470    1.1396 H         1 <0>         0.0797
     43 H6         -3.6830   -0.9422   -1.2890 H         1 <0>         0.1153
     44 H7         -2.3077   -0.0687   -2.0059 H         1 <0>         0.1097
     45 H8         -3.4723   -2.5857   -3.2796 H         1 <0>         0.0917
     46 H9         -2.0900   -1.6160   -3.8429 H         1 <0>         0.0953
     47 H10        -1.1481   -4.1739   -3.0921 H         1 <0>         0.4084
     48 H11        -0.1050   -6.0043   -3.6428 H         1 <0>         0.1936
     49 H12        -2.6348   -4.5953   -7.6373 H         1 <0>         0.4329
     50 H13        -2.1193   -5.8770   -8.5934 H         1 <0>         0.4033
     51 H14        -2.4138   -7.6226   -8.5142 H         1 <0>         0.1400
     52 H15        -2.0936   -9.1434  -10.4223 H         1 <0>         0.1493
     53 H16         1.9429   -9.8234   -9.2104 H         1 <0>         0.1490
     54 H17         1.6324   -8.2944   -7.3070 H         1 <0>         0.1482
     55 H18        -0.1685   -1.4223   -2.2128 H         1 <0>         0.3949
     56 H19        -2.9779    2.0225    4.7296 H         1 <0>         0.1478
     57 H20        -1.2807    0.7321    5.9553 H         1 <0>         0.1490
     58 H21        -0.2974   -1.2883    4.9561 H         1 <0>         0.1479
@<TRIPOS>BOND
     1    1    2 1
     2    1   38 1
     3    1   39 1
     4    1   40 1
     5    2    3 1
     6    2   41 1
     7    2   42 1
     8    3    4 1
     9    3   28 am
    10    4    5 1
    11    4   43 1
    12    4   44 1
    13    5    6 1
    14    5   23 1
    15    5   27 1
    16    6    7 1
    17    6   45 1
    18    6   46 1
    19    7    8 am
    20    7   47 1
    21    8    9 2
    22    8   10 1
    23   10   14 2
    24   10   11 1
    25   11   12 2
    26   11   48 1
    27   12   13 1
    28   13   14 1
    29   13   16 1
    30   14   15 1
    31   15   49 1
    32   15   50 1
    33   16   21 ar
    34   16   17 ar
    35   17   18 ar
    36   17   51 1
    37   18   19 ar
    38   18   52 1
    39   19   20 ar
    40   19   22 1
    41   20   21 ar
    42   20   53 1
    43   21   54 1
    44   23   24 1
    45   23   25 1
    46   23   26 1
    47   27   55 1
    48   28   29 2
    49   28   30 1
    50   30   35 ar
    51   30   31 ar
    52   31   32 ar
    53   31   37 1
    54   32   33 ar
    55   32   56 1
    56   33   34 ar
    57   33   57 1
    58   34   35 ar
    59   34   58 1
    60   35   36 1
@<TRIPOS>MOLECULE
CHEMBL182961
   81    86     0     0     0
SMALL
USER_CHARGES

@<TRIPOS>ATOM
      1 C1         -1.5911    2.2185    1.0260 C.3       1 <0>        -0.0457
      2 C2         -1.1366    0.8203    1.0997 C.1       1 <0>        -0.1650
      3 C3         -0.7742   -0.2948    1.1585 C.1       1 <0>        -0.2109
      4 C4         -0.3198   -1.6930    1.2322 C.3       1 <0>         0.2573
      5 C5          0.9201   -1.9014    0.3292 C.3       1 <0>        -0.1449
      6 C6          0.4929   -2.9015   -0.7780 C.3       1 <0>        -0.1134
      7 C7         -1.0311   -2.7307   -0.8306 C.3       1 <0>        -0.0796
      8 H1         -1.2952   -1.8113   -1.3532 H         1 <0>         0.0794
      9 C8         -1.3918   -2.6271    0.6748 C.3       1 <0>        -0.0360
     10 C9         -2.8184   -2.1130    0.7593 C.3       1 <0>        -0.0950
     11 C10        -3.7333   -3.2187    0.2111 C.3       1 <0>        -0.0183
     12 H2         -4.7482   -2.8315    0.1201 H         1 <0>         0.0988
     13 C11        -3.2567   -3.6915   -1.1479 C.2       1 <0>        -0.0423
     14 C12        -4.1792   -3.8905   -2.0873 C.2       1 <0>        -0.1337
     15 C13        -5.6413   -3.6381   -1.7975 C.3       1 <0>        -0.0800
     16 C14        -6.2599   -2.9181   -2.9997 C.3       1 <0>        -0.1661
     17 C15        -5.9289   -3.6563   -4.2685 C.2       1 <0>         0.3875
     18 O1         -6.7517   -3.7057   -5.1606 O.2       1 <0>        -0.4719
     19 C16        -4.6857   -4.2897   -4.4418 C.2       1 <0>        -0.2496
     20 C17        -3.8130   -4.3810   -3.4157 C.2       1 <0>         0.0283
     21 C18        -2.4436   -4.9914   -3.5880 C.3       1 <0>        -0.0954
     22 C19        -1.4408   -4.0922   -2.8665 C.3       1 <0>        -0.1114
     23 C20        -1.7860   -3.9148   -1.4199 C.3       1 <0>        -0.0453
     24 H3         -1.4760   -4.8234   -0.9036 H         1 <0>         0.0938
     25 C21        -3.7314   -4.3828    1.1681 C.ar      1 <0>        -0.1120
     26 C22        -3.8025   -4.1561    2.5304 C.ar      1 <0>        -0.0645
     27 C23        -3.8010   -5.2206    3.4102 C.ar      1 <0>        -0.1881
     28 C24        -3.7280   -6.5203    2.9253 C.ar      1 <0>         0.2125
     29 C25        -3.6568   -6.7445    1.5562 C.ar      1 <0>        -0.1953
     30 C26        -3.6644   -5.6756    0.6818 C.ar      1 <0>        -0.0743
     31 N1         -3.7259   -7.5992    3.8123 N.pl3     1 <0>        -0.6258
     32 C27        -3.8006   -7.3609    5.2558 C.3       1 <0>         0.0949
     33 C28        -3.6488   -8.9692    3.2991 C.3       1 <0>         0.1300
     34 C29        -2.1821   -9.3896    3.1856 C.3       1 <0>         0.0893
     35 H4         -1.6423   -8.6660    2.5748 H         1 <0>         0.0889
     36 C30        -2.0957  -10.7730    2.5354 C.3       1 <0>        -0.1536
     37 C31        -0.6287  -11.2084    2.4612 C.3       1 <0>         0.1061
     38 H5         -0.5641  -12.1987    2.0103 H         1 <0>         0.0804
     39 C32        -0.0519  -11.2521    3.8819 C.3       1 <0>        -0.2049
     40 C33        -0.3394   -9.9263    4.5520 C.2       1 <0>         0.4951
     41 O2          0.5329   -9.3172    5.1246 O.2       1 <0>        -0.4514
     42 O3         -1.5977   -9.4431    4.4918 O.3       1 <0>        -0.3645
     43 O4          0.1088  -10.2737    1.6710 O.3       1 <0>        -0.5625
     44 C34        -1.2795   -4.0029    1.3348 C.3       1 <0>        -0.1472
     45 O5         -0.0137   -2.0421    2.5836 O.3       1 <0>        -0.5380
     46 H6         -0.8174    2.8735    1.4265 H         1 <0>         0.0811
     47 H7         -1.7883    2.4821   -0.0131 H         1 <0>         0.0817
     48 H8         -2.5040    2.3350    1.6100 H         1 <0>         0.0820
     49 H9          1.2206   -0.9540   -0.1182 H         1 <0>         0.0716
     50 H10         1.7417   -2.3175    0.9123 H         1 <0>         0.0805
     51 H11         0.9438   -2.6339   -1.7336 H         1 <0>         0.0707
     52 H12         0.7568   -3.9215   -0.4985 H         1 <0>         0.0753
     53 H13        -3.0751   -1.8993    1.7969 H         1 <0>         0.0746
     54 H14        -2.9241   -1.2109    0.1566 H         1 <0>         0.0678
     55 H15        -6.1519   -4.5876   -1.6371 H         1 <0>         0.0811
     56 H16        -5.7358   -3.0140   -0.9088 H         1 <0>         0.0928
     57 H17        -7.3423   -2.8754   -2.8780 H         1 <0>         0.0941
     58 H18        -5.8638   -1.9043   -3.0572 H         1 <0>         0.0983
     59 H19        -4.4266   -4.7067   -5.4038 H         1 <0>         0.1342
     60 H20        -2.4263   -5.9896   -3.1506 H         1 <0>         0.0890
     61 H21        -2.1945   -5.0470   -4.6477 H         1 <0>         0.0852
     62 H22        -0.4467   -4.5317   -2.9487 H         1 <0>         0.0787
     63 H23        -1.4349   -3.1124   -3.3440 H         1 <0>         0.0668
     64 H24        -3.8589   -3.1453    2.9068 H         1 <0>         0.1204
     65 H25        -3.8562   -5.0428    4.4740 H         1 <0>         0.1210
     66 H26        -3.5995   -7.7537    1.1759 H         1 <0>         0.1170
     67 H27        -3.6134   -5.8493   -0.3830 H         1 <0>         0.1200
     68 H28        -4.8450   -7.3421    5.5674 H         1 <0>         0.0465
     69 H29        -3.2784   -8.1591    5.7834 H         1 <0>         0.0729
     70 H30        -3.3341   -6.4042    5.4908 H         1 <0>         0.0674
     71 H31        -4.1680   -9.6425    3.9812 H         1 <0>         0.0873
     72 H32        -4.1172   -9.0158    2.3159 H         1 <0>         0.1001
     73 H33        -2.6585  -11.4910    3.1318 H         1 <0>         0.0972
     74 H34        -2.5132  -10.7287    1.5295 H         1 <0>         0.0991
     75 H35        -0.5224  -12.0581    4.4450 H         1 <0>         0.1182
     76 H36         1.0249  -11.4149    3.8365 H         1 <0>         0.1076
     77 H37         1.0474  -10.4883    1.5818 H         1 <0>         0.3865
     78 H38        -1.7051   -3.9607    2.3374 H         1 <0>         0.0714
     79 H39        -1.8231   -4.7368    0.7398 H         1 <0>         0.0830
     80 H40        -0.2302   -4.2913    1.3974 H         1 <0>         0.0462
     81 H41         0.6749   -1.4946    2.9850 H         1 <0>         0.3769
@<TRIPOS>BOND
     1    1    2 1
     2    1   46 1
     3    1   47 1
     4    1   48 1
     5    2    3 3
     6    3    4 1
     7    4    9 1
     8    4    5 1
     9    4   45 1
    10    5    6 1
    11    5   49 1
    12    5   50 1
    13    6    7 1
    14    6   51 1
    15    6   52 1
    16    7    8 1
    17    7   23 1
    18    7    9 1
    19    9   10 1
    20    9   44 1
    21   10   11 1
    22   10   53 1
    23   10   54 1
    24   11   12 1
    25   11   13 1
    26   11   25 1
    27   13   23 1
    28   13   14 2
    29   14   20 1
    30   14   15 1
    31   15   16 1
    32   15   55 1
    33   15   56 1
    34   16   17 1
    35   16   57 1
    36   16   58 1
    37   17   18 2
    38   17   19 1
    39   19   20 2
    40   19   59 1
    41   20   21 1
    42   21   22 1
    43   21   60 1
    44   21   61 1
    45   22   23 1
    46   22   62 1
    47   22   63 1
    48   23   24 1
    49   25   30 ar
    50   25   26 ar
    51   26   27 ar
    52   26   64 1
    53   27   28 ar
    54   27   65 1
    55   28   29 ar
    56   28   31 1
    57   29   30 ar
    58   29   66 1
    59   30   67 1
    60   31   32 1
    61   31   33 1
    62   32   68 1
    63   32   69 1
    64   32   70 1
    65   33   34 1
    66   33   71 1
    67   33   72 1
    68   34   35 1
    69   34   42 1
    70   34   36 1
    71   36   37 1
    72   36   73 1
    73   36   74 1
    74   37   38 1
    75   37   39 1
    76   37   43 1
    77   39   40 1
    78   39   75 1
    79   39   76 1
    80   40   41 2
    81   40   42 1
    82   43   77 1
    83   44   78 1
    84   44   79 1
    85   44   80 1
    86   45   81 1
@<TRIPOS>MOLECULE
CHEMBL384467
   57    60     0     0     0
SMALL
USER_CHARGES

@<TRIPOS>ATOM
      1 C1          1.7167    1.2309    1.5187 C.3       1 <0>        -0.1455
      2 C2          1.3454   -0.1868    1.0794 C.3       1 <0>        -0.1160
      3 H1          2.1316   -0.6004    0.4477 H         1 <0>         0.0891
      4 C3         -0.0035   -0.1703    0.3097 C.3       1 <0>        -0.1065
      5 C4         -1.0253   -0.5076    1.4012 C.3       1 <0>        -0.0810
      6 H2         -1.1939    0.3572    2.0429 H         1 <0>         0.0898
      7 C5         -2.3489   -1.0698    0.9157 C.3       1 <0>        -0.1006
      8 H3         -2.1727   -1.9725    0.3308 H         1 <0>         0.1130
      9 C6         -3.0706   -0.0302    0.0559 C.3       1 <0>        -0.1154
     10 C7         -4.3873   -0.6154   -0.4645 C.3       1 <0>        -0.0951
     11 C8         -5.1933   -1.0974    0.7271 C.2       1 <0>        -0.0294
     12 C9         -6.4507   -0.6977    0.8564 C.2       1 <0>        -0.2208
     13 C10        -7.2574   -1.1277    2.0090 C.2       1 <0>         0.4077
     14 O1         -8.4233   -0.7949    2.1114 O.2       1 <0>        -0.4562
     15 C11        -6.6219   -1.9706    3.0360 C.2       1 <0>        -0.2091
     16 C12        -5.3670   -2.3631    2.8829 C.2       1 <0>        -0.0691
     17 C13        -4.5212   -2.0131    1.7070 C.3       1 <0>        -0.0316
     18 C14        -3.1875   -1.4118    2.1576 C.3       1 <0>         0.1617
     19 C15        -2.4590   -2.3846    3.0797 C.3       1 <0>         0.0883
     20 H4         -3.0477   -2.5237    3.9864 H         1 <0>         0.0725
     21 C16        -1.0633   -1.8673    3.4626 C.3       1 <0>        -0.1275
     22 C17        -0.2906   -1.6287    2.1842 C.3       1 <0>        -0.0389
     23 C18         1.1308   -1.0889    2.3202 C.3       1 <0>         0.1101
     24 C19         2.1234   -2.2228    2.3194 C.2       1 <0>         0.3354
     25 O2          2.5416   -2.6584    1.2736 O.2       1 <0>        -0.4125
     26 C20         2.5942   -2.8131    3.6236 C.3       1 <0>         0.0292
     27 O3          3.5247   -3.8656    3.3618 O.3       1 <0>        -0.5557
     28 O4          1.2564   -0.3206    3.5186 O.3       1 <0>        -0.5365
     29 C21        -0.2826   -2.9176    1.3599 C.3       1 <0>        -0.1713
     30 O5         -2.3223   -3.6426    2.4156 O.3       1 <0>        -0.5409
     31 F1         -3.4514   -0.2383    2.8722 F         1 <0>        -0.1921
     32 C22        -4.1781   -3.3115    0.9740 C.3       1 <0>        -0.1371
     33 H5          2.6440    1.2029    2.0910 H         1 <0>         0.0522
     34 H6          1.8515    1.8603    0.6390 H         1 <0>         0.0629
     35 H7          0.9191    1.6397    2.1391 H         1 <0>         0.0692
     36 H8         -0.1972    0.8177   -0.1080 H         1 <0>         0.0758
     37 H9         -0.0104   -0.9291   -0.4728 H         1 <0>         0.0749
     38 H10        -3.2795    0.8552    0.6564 H         1 <0>         0.0744
     39 H11        -2.4377    0.2454   -0.7876 H         1 <0>         0.0816
     40 H12        -4.9453    0.1528   -0.9998 H         1 <0>         0.0846
     41 H13        -4.1799   -1.4524   -1.1313 H         1 <0>         0.0881
     42 H14        -6.8864   -0.0507    0.1094 H         1 <0>         0.1389
     43 H15        -7.1785   -2.2675    3.9126 H         1 <0>         0.1407
     44 H16        -4.9291   -2.9744    3.6581 H         1 <0>         0.1272
     45 H17        -1.1524   -0.9285    4.0092 H         1 <0>         0.0906
     46 H18        -0.5482   -2.6072    4.0751 H         1 <0>         0.0741
     47 H19         3.0790   -2.0392    4.2187 H         1 <0>         0.0812
     48 H20         1.7401   -3.2112    4.1715 H         1 <0>         0.0812
     49 H21         3.8701   -4.2922    4.1579 H         1 <0>         0.3864
     50 H22         2.1272    0.0825    3.6379 H         1 <0>         0.3793
     51 H23         0.3951   -2.8035    0.5138 H         1 <0>         0.0588
     52 H24         0.0519   -3.7461    1.9842 H         1 <0>         0.0516
     53 H25        -1.2891   -3.1213    0.9944 H         1 <0>         0.1113
     54 H26        -1.8675   -4.3164    2.9393 H         1 <0>         0.3771
     55 H27        -3.2905   -3.1585    0.3600 H         1 <0>         0.0769
     56 H28        -3.9848   -4.0995    1.7019 H         1 <0>         0.0989
     57 H29        -5.0143   -3.6016    0.3379 H         1 <0>         0.0541
@<TRIPOS>BOND
     1    1    2 1
     2    1   33 1
     3    1   34 1
     4    1   35 1
     5    2    3 1
     6    2   23 1
     7    2    4 1
     8    4    5 1
     9    4   36 1
    10    4   37 1
    11    5    6 1
    12    5   22 1
    13    5    7 1
    14    7    8 1
    15    7   18 1
    16    7    9 1
    17    9   10 1
    18    9   38 1
    19    9   39 1
    20   10   11 1
    21   10   40 1
    22   10   41 1
    23   11   17 1
    24   11   12 2
    25   12   13 1
    26   12   42 1
    27   13   14 2
    28   13   15 1
    29   15   16 2
    30   15   43 1
    31   16   17 1
    32   16   44 1
    33   17   18 1
    34   17   32 1
    35   18   19 1
    36   18   31 1
    37   19   20 1
    38   19   21 1
    39   19   30 1
    40   21   22 1
    41   21   45 1
    42   21   46 1
    43   22   23 1
    44   22   29 1
    45   23   24 1
    46   23   28 1
    47   24   25 2
    48   24   26 1
    49   26   27 1
    50   26   47 1
    51   26   48 1
    52   27   49 1
    53   28   50 1
    54   29   51 1
    55   29   52 1
    56   29   53 1
    57   30   54 1
    58   32   55 1
    59   32   56 1
    60   32   57 1
@<TRIPOS>MOLECULE
CHEMBL196929
   69    73     0     0     0
SMALL
USER_CHARGES

@<TRIPOS>ATOM
      1 C1         -2.9738   -1.0392   -0.7299 C.3       1 <0>        -0.1825
      2 C2         -1.7609   -0.3559   -1.3647 C.3       1 <0>        -0.0224
      3 C3         -2.0687    1.1262   -1.5867 C.3       1 <0>        -0.1266
      4 C4         -0.5539   -0.4924   -0.4344 C.3       1 <0>        -0.0985
      5 C5         -0.7713    0.3672    0.8126 C.3       1 <0>         0.1351
      6 C6          0.4754    0.3068    1.6974 C.3       1 <0>        -0.0986
      7 C7          1.6868    0.6855    0.8849 C.ar      1 <0>        -0.0751
      8 C8          2.4043   -0.2929    0.2206 C.ar      1 <0>        -0.1117
      9 C9          3.5145    0.0483   -0.5250 C.ar      1 <0>        -0.1086
     10 C10         3.9122    1.3812   -0.6077 C.ar      1 <0>        -0.0422
     11 C11         3.1858    2.3626    0.0635 C.ar      1 <0>        -0.1083
     12 C12         2.0738    2.0108    0.8016 C.ar      1 <0>        -0.0973
     13 C13         5.1054    1.7540   -1.4074 C.ar      1 <0>        -0.0476
     14 C14         5.8287    0.7732   -2.0829 C.ar      1 <0>        -0.1107
     15 C15         6.9374    1.1257   -2.8256 C.ar      1 <0>        -0.1173
     16 C16         7.3310    2.4496   -2.8996 C.ar      1 <0>        -0.1182
     17 C17         6.6169    3.4272   -2.2307 C.ar      1 <0>        -0.1175
     18 C18         5.5030    3.0868   -1.4901 C.ar      1 <0>        -0.1108
     19 C19        -1.9584   -0.1538    1.5810 C.2       1 <0>         0.5038
     20 O1         -1.8532   -1.1590    2.2513 O.2       1 <0>        -0.4978
     21 N1         -3.1370    0.4975    1.5235 N.am      1 <0>        -0.6674
     22 C20        -4.2047    0.0778    2.3156 C.ar      1 <0>         0.1904
     23 C21        -3.9633   -0.4904    3.5630 C.ar      1 <0>        -0.1328
     24 C22        -5.0132   -0.9068    4.3501 C.ar      1 <0>        -0.0079
     25 C23        -6.3257   -0.7582    3.8943 C.ar      1 <0>        -0.2141
     26 C24        -6.5611   -0.1858    2.6387 C.ar      1 <0>        -0.0781
     27 C25        -5.5116    0.2330    1.8601 C.ar      1 <0>        -0.1289
     28 C26        -8.0578   -0.1728    2.4576 C.3       1 <0>         0.0911
     29 O2         -8.6200   -0.7489    3.6397 O.3       1 <0>        -0.3144
     30 C27        -7.6324   -1.0939    4.4829 C.2       1 <0>         0.5229
     31 O3         -7.7943   -1.6074    5.5722 O.2       1 <0>        -0.4485
     32 O4         -1.0133    1.7203    0.4221 O.3       1 <0>        -0.5282
     33 C28        -1.4519   -1.0085   -2.6874 C.ar      1 <0>        -0.0658
     34 C29        -0.2238   -1.6092   -2.8916 C.ar      1 <0>        -0.1231
     35 C30         0.0597   -2.2078   -4.1050 C.ar      1 <0>        -0.1158
     36 C31        -0.8852   -2.2060   -5.1140 C.ar      1 <0>        -0.1253
     37 C32        -2.1136   -1.6061   -4.9095 C.ar      1 <0>        -0.1172
     38 C33        -2.3987   -1.0113   -3.6947 C.ar      1 <0>        -0.1161
     39 H1         -3.7012   -1.2813   -1.5048 H         1 <0>         0.0603
     40 H2         -2.6556   -1.9548   -0.2315 H         1 <0>         0.0561
     41 H3         -3.4289   -0.3682   -0.0014 H         1 <0>         0.0831
     42 H4         -2.7907    1.4628   -0.8427 H         1 <0>         0.0512
     43 H5         -1.1508    1.7063   -1.4908 H         1 <0>         0.0853
     44 H6         -2.4838    1.2655   -2.5849 H         1 <0>         0.0484
     45 H7         -0.4376   -1.5356   -0.1408 H         1 <0>         0.0857
     46 H8          0.3445   -0.1587   -0.9535 H         1 <0>         0.0996
     47 H9          0.3643    1.0019    2.5296 H         1 <0>         0.0825
     48 H10         0.5985   -0.7052    2.0831 H         1 <0>         0.0982
     49 H11         2.0954   -1.3257    0.2857 H         1 <0>         0.1239
     50 H12         4.0743   -0.7164   -1.0430 H         1 <0>         0.1255
     51 H13         3.4899    3.3971    0.0030 H         1 <0>         0.1249
     52 H14         1.5072    2.7713    1.3183 H         1 <0>         0.1229
     53 H15         5.5226   -0.2609   -2.0252 H         1 <0>         0.1248
     54 H16         7.4988    0.3663   -3.3496 H         1 <0>         0.1245
     55 H17         8.1994    2.7209   -3.4817 H         1 <0>         0.1232
     56 H18         6.9288    4.4594   -2.2916 H         1 <0>         0.1245
     57 H19         4.9436    3.8515   -0.9718 H         1 <0>         0.1248
     58 H20        -3.2423    1.2581    0.9309 H         1 <0>         0.4209
     59 H21        -2.9486   -0.6054    3.9145 H         1 <0>         0.1497
     60 H22        -4.8228   -1.3478    5.3174 H         1 <0>         0.1421
     61 H23        -5.6986    0.6783    0.8941 H         1 <0>         0.1404
     62 H24        -8.4102    0.8517    2.3380 H         1 <0>         0.1190
     63 H25        -8.3333   -0.7665    1.5860 H         1 <0>         0.1185
     64 H26        -1.1601    2.3234    1.1636 H         1 <0>         0.3679
     65 H27         0.5144   -1.6106   -2.1033 H         1 <0>         0.1231
     66 H28         1.0195   -2.6765   -4.2647 H         1 <0>         0.1206
     67 H29        -0.6634   -2.6731   -6.0622 H         1 <0>         0.1201
     68 H30        -2.8517   -1.6044   -5.6980 H         1 <0>         0.1207
     69 H31        -3.3598   -0.5458   -3.5336 H         1 <0>         0.1198
@<TRIPOS>BOND
     1    1    2 1
     2    1   39 1
     3    1   40 1
     4    1   41 1
     5    2    3 1
     6    2    4 1
     7    2   33 1
     8    3   42 1
     9    3   43 1
    10    3   44 1
    11    4    5 1
    12    4   45 1
    13    4   46 1
    14    5    6 1
    15    5   19 1
    16    5   32 1
    17    6    7 1
    18    6   47 1
    19    6   48 1
    20    7   12 ar
    21    7    8 ar
    22    8    9 ar
    23    8   49 1
    24    9   10 ar
    25    9   50 1
    26   10   11 ar
    27   10   13 1
    28   11   12 ar
    29   11   51 1
    30   12   52 1
    31   13   18 ar
    32   13   14 ar
    33   14   15 ar
    34   14   53 1
    35   15   16 ar
    36   15   54 1
    37   16   17 ar
    38   16   55 1
    39   17   18 ar
    40   17   56 1
    41   18   57 1
    42   19   20 2
    43   19   21 am
    44   21   22 1
    45   21   58 1
    46   22   27 ar
    47   22   23 ar
    48   23   24 ar
    49   23   59 1
    50   24   25 ar
    51   24   60 1
    52   25   30 1
    53   25   26 ar
    54   26   27 ar
    55   26   28 1
    56   27   61 1
    57   28   29 1
    58   28   62 1
    59   28   63 1
    60   29   30 1
    61   30   31 2
    62   32   64 1
    63   33   38 ar
    64   33   34 ar
    65   34   35 ar
    66   34   65 1
    67   35   36 ar
    68   35   66 1
    69   36   37 ar
    70   36   67 1
    71   37   38 ar
    72   37   68 1
    73   38   69 1
@<TRIPOS>MOLECULE
CHEMBL196929__1
   69    73     0     0     0
SMALL
USER_CHARGES

@<TRIPOS>ATOM
      1 C1         -0.8457   -1.0546   -0.3820 C.3       1 <0>        -0.1249
      2 C2         -1.7898   -2.1462    0.1258 C.3       1 <0>        -0.0213
      3 C3         -1.1336   -2.8852    1.2938 C.3       1 <0>        -0.1775
      4 C4         -3.0993   -1.5099    0.5960 C.3       1 <0>        -0.0946
      5 C5         -2.7959   -0.4228    1.6291 C.3       1 <0>         0.1368
      6 C6         -4.1035    0.2312    2.0801 C.3       1 <0>        -0.1004
      7 C7         -4.8526    0.7395    0.8753 C.ar      1 <0>        -0.0749
      8 C8         -4.6297    2.0256    0.4174 C.ar      1 <0>        -0.0974
      9 C9         -5.3129    2.4963   -0.6856 C.ar      1 <0>        -0.1082
     10 C10        -6.2287    1.6733   -1.3380 C.ar      1 <0>        -0.0421
     11 C11        -6.4493    0.3787   -0.8725 C.ar      1 <0>        -0.1084
     12 C12        -5.7563   -0.0836    0.2280 C.ar      1 <0>        -0.1111
     13 C13        -6.9666    2.1740   -2.5241 C.ar      1 <0>        -0.0478
     14 C14        -6.7421    3.4668   -2.9929 C.ar      1 <0>        -0.1107
     15 C15        -7.4309    3.9272   -4.0967 C.ar      1 <0>        -0.1175
     16 C16        -8.3430    3.1080   -4.7371 C.ar      1 <0>        -0.1182
     17 C17        -8.5702    1.8239   -4.2758 C.ar      1 <0>        -0.1173
     18 C18        -7.8824    1.3511   -3.1765 C.ar      1 <0>        -0.1107
     19 C19        -2.1060   -1.0390    2.8188 C.2       1 <0>         0.5075
     20 O1         -2.6733   -1.8841    3.4782 O.2       1 <0>        -0.5014
     21 N1         -0.8585   -0.6510    3.1499 N.am      1 <0>        -0.6777
     22 C20        -0.2060   -1.2475    4.2278 C.ar      1 <0>         0.1882
     23 C21        -0.3091   -2.6208    4.4290 C.ar      1 <0>        -0.1279
     24 C22         0.3327   -3.2160    5.4915 C.ar      1 <0>        -0.0108
     25 C23         1.0904   -2.4380    6.3708 C.ar      1 <0>        -0.2090
     26 C24         1.1897   -1.0573    6.1623 C.ar      1 <0>        -0.0826
     27 C25         0.5528   -0.4693    5.0986 C.ar      1 <0>        -0.1224
     28 C26         2.0649   -0.5278    7.2700 C.3       1 <0>         0.0914
     29 O2          2.4326   -1.6506    8.0758 O.3       1 <0>        -0.3142
     30 C27         1.8777   -2.7652    7.5706 C.2       1 <0>         0.5227
     31 O3          2.0073   -3.8801    8.0359 O.2       1 <0>        -0.4473
     32 O4         -1.9456    0.5658    1.0446 O.3       1 <0>        -0.5296
     33 C28        -2.0761   -3.1205   -0.9877 C.ar      1 <0>        -0.0662
     34 C29        -3.3740   -3.3086   -1.4248 C.ar      1 <0>        -0.1226
     35 C30        -3.6367   -4.2023   -2.4462 C.ar      1 <0>        -0.1162
     36 C31        -2.6014   -4.9075   -3.0308 C.ar      1 <0>        -0.1253
     37 C32        -1.3034   -4.7187   -2.5944 C.ar      1 <0>        -0.1170
     38 C33        -1.0402   -3.8219   -1.5759 C.ar      1 <0>        -0.1156
     39 H1         -0.1047   -1.4961   -1.0484 H         1 <0>         0.0464
     40 H2         -1.4185   -0.3017   -0.9234 H         1 <0>         0.0679
     41 H3         -0.3411   -0.5881    0.4642 H         1 <0>         0.0638
     42 H4         -0.7373   -2.1608    2.0054 H         1 <0>         0.0786
     43 H5         -1.8746   -3.5129    1.7889 H         1 <0>         0.0619
     44 H6         -0.3215   -3.5084    0.9193 H         1 <0>         0.0609
     45 H7         -3.6148   -1.0673   -0.2564 H         1 <0>         0.0978
     46 H8         -3.7328   -2.2734    1.0473 H         1 <0>         0.0886
     47 H9         -4.7148   -0.5029    2.6049 H         1 <0>         0.0967
     48 H10        -3.8819    1.0637    2.7479 H         1 <0>         0.0821
     49 H11        -3.9199    2.6627    0.9240 H         1 <0>         0.1224
     50 H12        -5.1384    3.5007   -1.0421 H         1 <0>         0.1250
     51 H13        -7.1583   -0.2632   -1.3742 H         1 <0>         0.1256
     52 H14        -5.9231   -1.0885    0.5869 H         1 <0>         0.1241
     53 H15        -6.0307    4.1076   -2.4931 H         1 <0>         0.1248
     54 H16        -7.2577    4.9291   -4.4609 H         1 <0>         0.1246
     55 H17        -8.8801    3.4724   -5.6004 H         1 <0>         0.1233
     56 H18        -9.2837    1.1886   -4.7794 H         1 <0>         0.1246
     57 H19        -8.0572    0.3468   -2.8198 H         1 <0>         0.1248
     58 H20        -0.4147    0.0434    2.6383 H         1 <0>         0.4170
     59 H21        -0.8952   -3.2216    3.7493 H         1 <0>         0.1485
     60 H22         0.2506   -4.2819    5.6453 H         1 <0>         0.1424
     61 H23         0.6364    0.5956    4.9393 H         1 <0>         0.1407
     62 H24         2.9565   -0.0617    6.8505 H         1 <0>         0.1189
     63 H25         1.5118    0.1959    7.8688 H         1 <0>         0.1184
     64 H26        -1.7117    1.2875    1.6442 H         1 <0>         0.3687
     65 H27        -4.1828   -2.7577   -0.9680 H         1 <0>         0.1230
     66 H28        -4.6508   -4.3498   -2.7871 H         1 <0>         0.1206
     67 H29        -2.8067   -5.6062   -3.8283 H         1 <0>         0.1201
     68 H30        -0.4946   -5.2699   -3.0510 H         1 <0>         0.1207
     69 H31        -0.0257   -3.6716   -1.2375 H         1 <0>         0.1195
@<TRIPOS>BOND
     1    1    2 1
     2    1   39 1
     3    1   40 1
     4    1   41 1
     5    2    3 1
     6    2    4 1
     7    2   33 1
     8    3   42 1
     9    3   43 1
    10    3   44 1
    11    4    5 1
    12    4   45 1
    13    4   46 1
    14    5    6 1
    15    5   19 1
    16    5   32 1
    17    6    7 1
    18    6   47 1
    19    6   48 1
    20    7   12 ar
    21    7    8 ar
    22    8    9 ar
    23    8   49 1
    24    9   10 ar
    25    9   50 1
    26   10   11 ar
    27   10   13 1
    28   11   12 ar
    29   11   51 1
    30   12   52 1
    31   13   18 ar
    32   13   14 ar
    33   14   15 ar
    34   14   53 1
    35   15   16 ar
    36   15   54 1
    37   16   17 ar
    38   16   55 1
    39   17   18 ar
    40   17   56 1
    41   18   57 1
    42   19   20 2
    43   19   21 am
    44   21   22 1
    45   21   58 1
    46   22   27 ar
    47   22   23 ar
    48   23   24 ar
    49   23   59 1
    50   24   25 ar
    51   24   60 1
    52   25   30 1
    53   25   26 ar
    54   26   27 ar
    55   26   28 1
    56   27   61 1
    57   28   29 1
    58   28   62 1
    59   28   63 1
    60   29   30 1
    61   30   31 2
    62   32   64 1
    63   33   38 ar
    64   33   34 ar
    65   34   35 ar
    66   34   65 1
    67   35   36 ar
    68   35   66 1
    69   36   37 ar
    70   36   67 1
    71   37   38 ar
    72   37   68 1
    73   38   69 1
@<TRIPOS>MOLECULE
CHEMBL419158
   54    58     0     0     0
SMALL
USER_CHARGES

@<TRIPOS>ATOM
      1 C1          0.0044    1.4182   -0.0025 C.3       1 <0>        -0.1291
      2 C2         -0.0006   -0.0886    0.0247 C.2       1 <0>        -0.0578
      3 C3         -0.1001   -0.7135   -1.1481 C.2       1 <0>        -0.1724
      4 C4         -0.0816   -2.2148   -1.2292 C.3       1 <0>         0.2136
      5 N1          0.7330   -2.7449   -0.1294 N.pl3     1 <0>        -0.7344
      6 C5          0.5812   -2.1931    1.1434 C.ar      1 <0>         0.2208
      7 C6          0.1115   -0.8647    1.2671 C.ar      1 <0>        -0.0860
      8 C7         -0.3075   -0.4421    2.5214 C.ar      1 <0>        -0.0677
      9 C8          0.1616   -1.1292    3.6506 C.ar      1 <0>        -0.0708
     10 C9          0.7853   -2.3632    3.5165 C.ar      1 <0>        -0.0461
     11 C10         0.9745   -2.9046    2.2601 C.ar      1 <0>        -0.1808
     12 C11         0.0299   -0.4867    4.9796 C.ar      1 <0>        -0.1383
     13 C12        -0.9494    0.5089    5.1141 C.ar      1 <0>         0.1678
     14 C13        -1.1243    1.1509    6.3279 C.ar      1 <0>        -0.1782
     15 C14        -0.3455    0.8016    7.4155 C.ar      1 <0>        -0.0457
     16 C15         0.6149   -0.1830    7.2937 C.ar      1 <0>        -0.2366
     17 C16         0.8127   -0.8246    6.0755 C.ar      1 <0>         0.1705
     18 O1          1.7989   -1.7556    5.9881 O.3       1 <0>        -0.3096
     19 C17         2.5431   -2.0259    7.1777 C.3       1 <0>         0.0239
     20 O2         -1.7259    0.8150    4.0568 O.3       1 <0>        -0.3056
     21 C18        -1.2394    0.7186    2.7221 C.3       1 <0>         0.1938
     22 C19        -2.4544    0.5235    1.8521 C.ar      1 <0>        -0.0559
     23 C20        -3.2949   -0.5519    2.0703 C.ar      1 <0>        -0.0690
     24 C21        -4.4103   -0.7318    1.2716 C.ar      1 <0>        -0.0245
     25 C22        -4.6845    0.1652    0.2549 C.ar      1 <0>        -0.0937
     26 C23        -3.8433    1.2416    0.0373 C.ar      1 <0>        -0.0246
     27 C24        -2.7310    1.4233    0.8400 C.ar      1 <0>        -0.0891
     28 Cl1        -4.1863    2.3675   -1.2387 Cl        1 <0>        -0.0521
     29 Cl2        -5.4651   -2.0832    1.5451 Cl        1 <0>        -0.0525
     30 C25         0.5253   -2.6470   -2.5652 C.3       1 <0>        -0.1529
     31 C26        -1.5074   -2.7552   -1.1191 C.3       1 <0>        -0.1553
     32 H1          0.0107    1.7999    1.0185 H         1 <0>         0.0640
     33 H2          0.8930    1.7692   -0.5271 H         1 <0>         0.0734
     34 H3         -0.8870    1.7752   -0.5184 H         1 <0>         0.0771
     35 H4         -0.1961   -0.1277   -2.0484 H         1 <0>         0.1231
     36 H5          1.3643   -3.4657   -0.2845 H         1 <0>         0.4022
     37 H6          1.0996   -2.9267    4.3802 H         1 <0>         0.1374
     38 H7          1.4282   -3.8791    2.1514 H         1 <0>         0.1266
     39 H8         -1.8703    1.9262    6.4246 H         1 <0>         0.1353
     40 H9         -0.4889    1.3000    8.3620 H         1 <0>         0.1344
     41 H10         1.2181   -0.4588    8.1464 H         1 <0>         0.1339
     42 H11         3.2966   -2.7857    6.9701 H         1 <0>         0.1018
     43 H12         3.0319   -1.1123    7.5160 H         1 <0>         0.0581
     44 H13         1.8684   -2.3860    7.9544 H         1 <0>         0.0582
     45 H14        -0.7507    1.6520    2.4615 H         1 <0>         0.0986
     46 H15        -3.0806   -1.2522    2.8641 H         1 <0>         0.1384
     47 H16        -5.5549    0.0250   -0.3690 H         1 <0>         0.1458
     48 H17        -2.0766    2.2661    0.6731 H         1 <0>         0.1469
     49 H18         1.5440   -2.2668   -2.6414 H         1 <0>         0.0631
     50 H19         0.5384   -3.7353   -2.6232 H         1 <0>         0.0635
     51 H20        -0.0740   -2.2467   -3.3829 H         1 <0>         0.0745
     52 H21        -2.1109   -2.3570   -1.9348 H         1 <0>         0.0652
     53 H22        -1.4891   -3.8434   -1.1783 H         1 <0>         0.0594
     54 H23        -1.9389   -2.4504   -0.1656 H         1 <0>         0.0573
@<TRIPOS>BOND
     1    1    2 1
     2    1   32 1
     3    1   33 1
     4    1   34 1
     5    2    7 1
     6    2    3 2
     7    3    4 1
     8    3   35 1
     9    4    5 1
    10    4   30 1
    11    4   31 1
    12    5    6 1
    13    5   36 1
    14    6   11 ar
    15    6    7 ar
    16    7    8 ar
    17    8   21 1
    18    8    9 ar
    19    9   10 ar
    20    9   12 1
    21   10   11 ar
    22   10   37 1
    23   11   38 1
    24   12   17 ar
    25   12   13 ar
    26   13   14 ar
    27   13   20 1
    28   14   15 ar
    29   14   39 1
    30   15   16 ar
    31   15   40 1
    32   16   17 ar
    33   16   41 1
    34   17   18 1
    35   18   19 1
    36   19   42 1
    37   19   43 1
    38   19   44 1
    39   20   21 1
    40   21   22 1
    41   21   45 1
    42   22   27 ar
    43   22   23 ar
    44   23   24 ar
    45   23   46 1
    46   24   25 ar
    47   24   29 1
    48   25   26 ar
    49   25   47 1
    50   26   27 ar
    51   26   28 1
    52   27   48 1
    53   30   49 1
    54   30   50 1
    55   30   51 1
    56   31   52 1
    57   31   53 1
    58   31   54 1
@<TRIPOS>MOLECULE
CHEMBL419158__1
   54    58     0     0     0
SMALL
USER_CHARGES

@<TRIPOS>ATOM
      1 C1         -0.4393    1.9220    0.0416 C.3       1 <0>        -0.1247
      2 C2         -0.3528    0.4347   -0.1798 C.2       1 <0>        -0.0651
      3 C3         -0.5867    0.0198   -1.4277 C.2       1 <0>        -0.1717
      4 C4         -0.5221   -1.4329   -1.7996 C.3       1 <0>         0.2120
      5 N1          0.4257   -2.1153   -0.9141 N.pl3     1 <0>        -0.7354
      6 C5          0.4260   -1.8075    0.4463 C.ar      1 <0>         0.2221
      7 C6         -0.0232   -0.5356    0.8762 C.ar      1 <0>        -0.0881
      8 C7         -0.1779   -0.3271    2.2384 C.ar      1 <0>        -0.0629
      9 C8          0.3092   -1.2791    3.1518 C.ar      1 <0>        -0.0685
     10 C9          0.8844   -2.4599    2.7003 C.ar      1 <0>        -0.0444
     11 C10         0.9384   -2.7212    1.3471 C.ar      1 <0>        -0.1813
     12 C11         0.1604   -1.0108    4.6021 C.ar      1 <0>        -0.1248
     13 C12        -0.8454   -0.1079    4.9868 C.ar      1 <0>         0.1498
     14 C13        -1.0666    0.1659    6.3213 C.ar      1 <0>        -0.1708
     15 C14        -0.2892   -0.4463    7.2887 C.ar      1 <0>        -0.0505
     16 C15         0.7115   -1.3244    6.9218 C.ar      1 <0>        -0.2295
     17 C16         0.9455   -1.6058    5.5799 C.ar      1 <0>         0.1659
     18 O1          1.9664   -2.4435    5.2595 O.3       1 <0>        -0.3096
     19 C17         2.7117   -3.0021    6.3432 C.3       1 <0>         0.0241
     20 O2         -1.5752    0.4940    4.0115 O.3       1 <0>        -0.2976
     21 C18        -0.8466    0.8838    2.8342 C.3       1 <0>         0.1823
     22 C19         0.1929    1.8947    3.2448 C.ar      1 <0>        -0.0958
     23 C20         1.4363    1.8912    2.6412 C.ar      1 <0>        -0.0808
     24 C21         2.3912    2.8188    3.0182 C.ar      1 <0>        -0.0256
     25 C22         2.1011    3.7501    3.9990 C.ar      1 <0>        -0.0959
     26 C23         0.8564    3.7535    4.6024 C.ar      1 <0>        -0.0237
     27 C24        -0.0995    2.8287    4.2210 C.ar      1 <0>        -0.0809
     28 Cl1         0.4916    4.9215    5.8338 Cl        1 <0>        -0.0518
     29 Cl2         3.9533    2.8135    2.2608 Cl        1 <0>        -0.0529
     30 C25        -1.9077   -2.0652   -1.6554 C.3       1 <0>        -0.1579
     31 C26        -0.0524   -1.5692   -3.2501 C.3       1 <0>        -0.1531
     32 H1          0.4917    2.2784    0.4825 H         1 <0>         0.0712
     33 H2         -0.6043    2.4224   -0.9126 H         1 <0>         0.0718
     34 H3         -1.2677    2.1416    0.7151 H         1 <0>         0.0691
     35 H4         -0.8269    0.7559   -2.1812 H         1 <0>         0.1247
     36 H5          1.0471   -2.7742   -1.2695 H         1 <0>         0.4028
     37 H6          1.2714   -3.1912    3.3920 H         1 <0>         0.1373
     38 H7          1.3808   -3.6408    0.9898 H         1 <0>         0.1271
     39 H8         -1.8446    0.8560    6.6136 H         1 <0>         0.1347
     40 H9         -0.4664   -0.2357    8.3324 H         1 <0>         0.1336
     41 H10         1.3191   -1.7976    7.6797 H         1 <0>         0.1332
     42 H11         3.4946   -3.6505    5.9498 H         1 <0>         0.1020
     43 H12         3.1636   -2.1990    6.9255 H         1 <0>         0.0576
     44 H13         2.0455   -3.5829    6.9812 H         1 <0>         0.0580
     45 H14        -1.5624    1.3160    2.1487 H         1 <0>         0.1422
     46 H15         1.6627    1.1641    1.8755 H         1 <0>         0.1446
     47 H16         2.8463    4.4742    4.2938 H         1 <0>         0.1456
     48 H17        -1.0729    2.8340    4.6889 H         1 <0>         0.1459
     49 H18        -2.6103   -1.5548   -2.3142 H         1 <0>         0.0664
     50 H19        -1.8558   -3.1197   -1.9265 H         1 <0>         0.0600
     51 H20        -2.2441   -1.9716   -0.6229 H         1 <0>         0.0579
     52 H21         0.9367   -1.1233   -3.3552 H         1 <0>         0.0633
     53 H22        -0.0058   -2.6244   -3.5193 H         1 <0>         0.0636
     54 H23        -0.7537   -1.0568   -3.9088 H         1 <0>         0.0745
@<TRIPOS>BOND
     1    1    2 1
     2    1   32 1
     3    1   33 1
     4    1   34 1
     5    2    7 1
     6    2    3 2
     7    3    4 1
     8    3   35 1
     9    4    5 1
    10    4   30 1
    11    4   31 1
    12    5    6 1
    13    5   36 1
    14    6   11 ar
    15    6    7 ar
    16    7    8 ar
    17    8   21 1
    18    8    9 ar
    19    9   10 ar
    20    9   12 1
    21   10   11 ar
    22   10   37 1
    23   11   38 1
    24   12   17 ar
    25   12   13 ar
    26   13   14 ar
    27   13   20 1
    28   14   15 ar
    29   14   39 1
    30   15   16 ar
    31   15   40 1
    32   16   17 ar
    33   16   41 1
    34   17   18 1
    35   18   19 1
    36   19   42 1
    37   19   43 1
    38   19   44 1
    39   20   21 1
    40   21   22 1
    41   21   45 1
    42   22   27 ar
    43   22   23 ar
    44   23   24 ar
    45   23   46 1
    46   24   25 ar
    47   24   29 1
    48   25   26 ar
    49   25   47 1
    50   26   27 ar
    51   26   28 1
    52   27   48 1
    53   30   49 1
    54   30   50 1
    55   30   51 1
    56   31   52 1
    57   31   53 1
    58   31   54 1
@<TRIPOS>MOLECULE
CHEMBL403179
   74    79     0     0     0
SMALL
USER_CHARGES

@<TRIPOS>ATOM
      1 C1         -0.3175    0.8655   -0.1738 C.3       1 <0>        -0.1411
      2 C2         -0.4370   -0.6417   -0.4083 C.3       1 <0>        -0.0408
      3 C3          0.1945   -1.3922    0.7659 C.3       1 <0>        -0.1445
      4 C4         -1.9139   -1.0244   -0.5233 C.3       1 <0>        -0.1519
      5 C5          0.2780   -1.0100   -1.6828 C.ar      1 <0>        -0.0035
      6 C6         -0.4201   -1.5948   -2.7227 C.ar      1 <0>        -0.1340
      7 C7          0.2358   -1.9327   -3.8917 C.ar      1 <0>        -0.0096
      8 C8          1.5897   -1.6852   -4.0209 C.ar      1 <0>        -0.6910
      9 C9          2.2876   -1.0996   -2.9813 C.ar      1 <0>        -0.0433
     10 C10         1.6309   -0.7578   -1.8139 C.ar      1 <0>        -0.1459
     11 S1          2.4259   -2.1169   -5.5106 S.o2      1 <0>         2.6805
     12 O1          3.7966   -2.2813   -5.1739 O.2       1 <0>        -0.9412
     13 O2          1.6623   -3.1484   -6.1207 O.2       1 <0>        -0.9344
     14 N1          2.3400   -0.8054   -6.5180 N.pl3     1 <0>        -1.0054
     15 C11         1.2098   -0.6659   -7.4417 C.3       1 <0>         0.1091
     16 C12         1.6608    0.1383   -8.6676 C.3       1 <0>        -0.0933
     17 C13         2.1450    1.4905   -8.1895 C.2       1 <0>        -0.0788
     18 C14         1.9415    2.5609   -8.9570 C.2       1 <0>        -0.0808
     19 C15         2.4668    3.8495   -8.4774 C.2       1 <0>         0.1131
     20 C16         3.3991    3.8944   -7.4459 C.2       1 <0>        -0.2497
     21 C17         3.7039    5.2207   -7.2129 C.2       1 <0>         0.0657
     22 N2          3.0167    5.9615   -8.0542 N.2       1 <0>        -0.2713
     23 N3          2.2388    5.1209   -8.8691 N.pl3     1 <0>        -0.2879
     24 C18         1.3822    5.5287   -9.9003 C.ar      1 <0>         0.1207
     25 C19         1.2383    4.7430  -11.0362 C.ar      1 <0>        -0.0967
     26 C20         0.3936    5.1466  -12.0514 C.ar      1 <0>        -0.1311
     27 C21        -0.3097    6.3342  -11.9372 C.ar      1 <0>         0.1153
     28 C22        -0.1675    7.1192  -10.8052 C.ar      1 <0>        -0.1332
     29 C23         0.6718    6.7162   -9.7852 C.ar      1 <0>        -0.0719
     30 F1         -1.1352    6.7276  -12.9316 F         1 <0>        -0.1258
     31 C24         3.9060    2.6350   -6.7940 C.3       1 <0>        -0.0439
     32 C25         2.7973    1.5808   -6.8348 C.3       1 <0>        -0.0380
     33 C26         3.3908    0.2156   -6.4795 C.3       1 <0>         0.1222
     34 C27         1.7365    1.9257   -5.7877 C.3       1 <0>        -0.0026
     35 N4          2.3854    2.1522   -4.4894 N.4       1 <0>        -0.4146
     36 C28         2.7868    3.5545   -4.2712 C.3       1 <0>        -0.0036
     37 C29         2.3616    3.3899   -2.8054 C.3       1 <0>        -0.1584
     38 C30         1.4308    2.3110   -3.3764 C.3       1 <0>        -0.0096
     39 H1          0.7347    1.1382   -0.0919 H         1 <0>         0.0578
     40 H2         -0.7674    1.4002   -1.0103 H         1 <0>         0.0554
     41 H3         -0.8347    1.1319    0.7480 H         1 <0>         0.0707
     42 H4         -0.3227   -1.1258    1.6877 H         1 <0>         0.0691
     43 H5          0.1094   -2.4660    0.5988 H         1 <0>         0.0614
     44 H6          1.2467   -1.1195    0.8478 H         1 <0>         0.0598
     45 H7         -2.3637   -0.4898   -1.3598 H         1 <0>         0.0607
     46 H8         -1.9990   -2.0982   -0.6904 H         1 <0>         0.0637
     47 H9         -2.4310   -0.7581    0.3985 H         1 <0>         0.0683
     48 H10        -1.4778   -1.7881   -2.6218 H         1 <0>         0.1440
     49 H11        -0.3094   -2.3902   -4.7040 H         1 <0>         0.1445
     50 H12         3.3454   -0.9066   -3.0822 H         1 <0>         0.1383
     51 H13         2.1753   -0.2968   -1.0031 H         1 <0>         0.1377
     52 H14         0.8729   -1.6533   -7.7573 H         1 <0>         0.1101
     53 H15         0.3937   -0.1432   -6.9429 H         1 <0>         0.0702
     54 H16         2.4718   -0.3854   -9.1736 H         1 <0>         0.1028
     55 H17         0.8222    0.2683   -9.3517 H         1 <0>         0.1046
     56 H18         1.4118    2.4857   -9.8951 H         1 <0>         0.1470
     57 H19         4.3911    5.5880   -6.4651 H         1 <0>         0.1919
     58 H20         1.7869    3.8170  -11.1257 H         1 <0>         0.1415
     59 H21         0.2817    4.5360  -12.9351 H         1 <0>         0.1523
     60 H22        -0.7166    8.0451  -10.7182 H         1 <0>         0.1518
     61 H23         0.7790    7.3265   -8.9007 H         1 <0>         0.1460
     62 H24         4.7787    2.2690   -7.3349 H         1 <0>         0.1042
     63 H25         4.1754    2.8423   -5.7584 H         1 <0>         0.0779
     64 H26         3.8218    0.2555   -5.4792 H         1 <0>         0.0765
     65 H27         4.1688   -0.0368   -7.2000 H         1 <0>         0.1043
     66 H28         1.2062    2.8283   -6.0913 H         1 <0>         0.1358
     67 H29         1.0294    1.1006   -5.7014 H         1 <0>         0.1357
     68 H30         3.8562    3.7245   -4.3967 H         1 <0>         0.1424
     69 H31         2.1779    4.2712   -4.8221 H         1 <0>         0.1527
     70 H32         3.1456    3.0038   -2.1539 H         1 <0>         0.1256
     71 H33         1.8420    4.2542   -2.3917 H         1 <0>         0.1327
     72 H34         0.4600    2.6959   -3.6886 H         1 <0>         0.1515
     73 H35         1.3509    1.4271   -2.7435 H         1 <0>         0.1351
     74 H36         3.1205    1.4887   -4.2959 H         1 <0>         0.4276
@<TRIPOS>BOND
     1    1    2 1
     2    1   39 1
     3    1   40 1
     4    1   41 1
     5    2    3 1
     6    2    4 1
     7    2    5 1
     8    3   42 1
     9    3   43 1
    10    3   44 1
    11    4   45 1
    12    4   46 1
    13    4   47 1
    14    5   10 ar
    15    5    6 ar
    16    6    7 ar
    17    6   48 1
    18    7    8 ar
    19    7   49 1
    20    8    9 ar
    21    8   11 1
    22    9   10 ar
    23    9   50 1
    24   10   51 1
    25   11   12 2
    26   11   13 2
    27   11   14 1
    28   14   33 1
    29   14   15 1
    30   15   16 1
    31   15   52 1
    32   15   53 1
    33   16   17 1
    34   16   54 1
    35   16   55 1
    36   17   32 1
    37   17   18 2
    38   18   19 1
    39   18   56 1
    40   19   23 1
    41   19   20 2
    42   20   21 1
    43   20   31 1
    44   21   22 2
    45   21   57 1
    46   22   23 1
    47   23   24 1
    48   24   29 ar
    49   24   25 ar
    50   25   26 ar
    51   25   58 1
    52   26   27 ar
    53   26   59 1
    54   27   28 ar
    55   27   30 1
    56   28   29 ar
    57   28   60 1
    58   29   61 1
    59   31   32 1
    60   31   62 1
    61   31   63 1
    62   32   33 1
    63   32   34 1
    64   33   64 1
    65   33   65 1
    66   34   35 1
    67   34   66 1
    68   34   67 1
    69   35   38 1
    70   35   36 1
    71   35   74 1
    72   36   37 1
    73   36   68 1
    74   36   69 1
    75   37   38 1
    76   37   70 1
    77   37   71 1
    78   38   72 1
    79   38   73 1
@<TRIPOS>MOLECULE
CHEMBL246834
   71    75     0     0     0
SMALL
USER_CHARGES

@<TRIPOS>ATOM
      1 C1          1.0747    2.0353    0.4143 C.3       1 <0>        -0.1380
      2 C2          1.1494    0.5147    0.5667 C.3       1 <0>        -0.0382
      3 C3          2.1585    0.1608    1.6610 C.3       1 <0>        -0.1413
      4 C4         -0.2291   -0.0278    0.9494 C.3       1 <0>        -0.1478
      5 C5          1.5867   -0.1000   -0.7378 C.ar      1 <0>        -0.0069
      6 C6          0.7637   -1.0006   -1.3878 C.ar      1 <0>        -0.1410
      7 C7          1.1648   -1.5645   -2.5844 C.ar      1 <0>        -0.0159
      8 C8          2.3889   -1.2275   -3.1313 C.ar      1 <0>        -0.6847
      9 C9          3.2115   -0.3263   -2.4818 C.ar      1 <0>        -0.0156
     10 C10         2.8085    0.2409   -1.2873 C.ar      1 <0>        -0.1335
     11 S1          2.9007   -1.9472   -4.6560 S.o2      1 <0>         2.6865
     12 O1          4.3201   -1.8831   -4.6791 O.2       1 <0>        -0.9509
     13 O2          2.1912   -3.1715   -4.7857 O.2       1 <0>        -0.9510
     14 N1          2.3624   -0.9575   -5.8697 N.pl3     1 <0>        -0.9953
     15 C11         1.0359   -1.1601   -6.4685 C.3       1 <0>         0.1202
     16 C12         0.2174    0.1210   -6.2779 C.3       1 <0>        -0.1157
     17 C13         1.0454    1.3044   -6.7463 C.2       1 <0>        -0.0241
     18 C14         0.4792    2.1536   -7.6033 C.2       1 <0>        -0.2234
     19 C15         1.2243    3.3268   -8.0731 C.2       1 <0>         0.3890
     20 O3          0.9392    3.8946   -9.1067 O.2       1 <0>        -0.4553
     21 C16         2.3710    3.7903   -7.1954 C.3       1 <0>        -0.1880
     22 C17         3.2356    2.5681   -6.8918 C.3       1 <0>        -0.1029
     23 C18         2.4394    1.4637   -6.2195 C.3       1 <0>        -0.0377
     24 C19         3.1985    0.1426   -6.3638 C.3       1 <0>         0.1287
     25 C20         2.3520    1.7801   -4.7251 C.3       1 <0>        -0.0832
     26 C21         1.6725    3.1113   -4.5324 C.ar      1 <0>        -0.0650
     27 C22         2.4312    4.2464   -4.3102 C.ar      1 <0>        -0.1147
     28 C23         1.8142    5.4682   -4.1331 C.ar      1 <0>        -0.1013
     29 C24         0.4243    5.5570   -4.1784 C.ar      1 <0>        -0.0563
     30 C25        -0.3351    4.4102   -4.4025 C.ar      1 <0>        -0.0970
     31 C26         0.2927    3.1946   -4.5840 C.ar      1 <0>        -0.1113
     32 C27        -0.2447    6.8676   -3.9882 C.ar      1 <0>         0.0014
     33 C28         0.5011    8.0289   -3.7677 C.ar      1 <0>        -0.1675
     34 C29        -0.1611    9.2271   -3.5957 C.ar      1 <0>         0.1042
     35 N2         -1.4784    9.2847   -3.6369 N.ar      1 <0>        -0.4869
     36 C30        -2.2191    8.2125   -3.8425 C.ar      1 <0>         0.1043
     37 C31        -1.6375    6.9754   -4.0304 C.ar      1 <0>        -0.1677
     38 H1          2.0567    2.4218    0.1417 H         1 <0>         0.0587
     39 H2          0.3558    2.2874   -0.3653 H         1 <0>         0.0576
     40 H3          0.7584    2.4799    1.3579 H         1 <0>         0.0625
     41 H4          1.8421    0.6054    2.6045 H         1 <0>         0.0637
     42 H5          2.2117   -0.9225    1.7696 H         1 <0>         0.0586
     43 H6          3.1405    0.5473    1.3883 H         1 <0>         0.0593
     44 H7         -0.9480    0.2243    0.1698 H         1 <0>         0.0603
     45 H8         -0.1759   -1.1111    1.0580 H         1 <0>         0.0609
     46 H9         -0.5454    0.4169    1.8930 H         1 <0>         0.0627
     47 H10        -0.1926   -1.2639   -0.9605 H         1 <0>         0.1366
     48 H11         0.5221   -2.2686   -3.0919 H         1 <0>         0.1380
     49 H12         4.1680   -0.0632   -2.9089 H         1 <0>         0.1376
     50 H13         3.4496    0.9478   -0.7817 H         1 <0>         0.1310
     51 H14         1.1425   -1.3719   -7.5324 H         1 <0>         0.0862
     52 H15         0.5342   -1.9923   -5.9746 H         1 <0>         0.1018
     53 H16        -0.6985    0.0603   -6.8658 H         1 <0>         0.0942
     54 H17        -0.0303    0.2429   -5.2234 H         1 <0>         0.0879
     55 H18        -0.5277    1.9780   -7.9520 H         1 <0>         0.1356
     56 H19         2.9612    4.5402   -7.7222 H         1 <0>         0.0906
     57 H20         1.9816    4.2087   -6.2673 H         1 <0>         0.1213
     58 H21         3.6522    2.1877   -7.8244 H         1 <0>         0.0744
     59 H22         4.0531    2.8661   -6.2353 H         1 <0>         0.0858
     60 H23         4.1199    0.1887   -5.7834 H         1 <0>         0.1036
     61 H24         3.4367   -0.0245   -7.4143 H         1 <0>         0.0870
     62 H25         1.7770    1.0025   -4.2221 H         1 <0>         0.0863
     63 H26         3.3560    1.8201   -4.3028 H         1 <0>         0.0842
     64 H27         3.5083    4.1763   -4.2750 H         1 <0>         0.1293
     65 H28         2.4075    6.3537   -3.9594 H         1 <0>         0.1283
     66 H29        -1.4126    4.4733   -4.4383 H         1 <0>         0.1260
     67 H30        -0.2946    2.3059   -4.7621 H         1 <0>         0.1246
     68 H31         1.5798    7.9889   -3.7320 H         1 <0>         0.1370
     69 H32         0.4066   10.1298   -3.4247 H         1 <0>         0.1581
     70 H33        -3.2948    8.3049   -3.8683 H         1 <0>         0.1579
     71 H34        -2.2497    6.1026   -4.2029 H         1 <0>         0.1362
@<TRIPOS>BOND
     1    1    2 1
     2    1   38 1
     3    1   39 1
     4    1   40 1
     5    2    3 1
     6    2    4 1
     7    2    5 1
     8    3   41 1
     9    3   42 1
    10    3   43 1
    11    4   44 1
    12    4   45 1
    13    4   46 1
    14    5   10 ar
    15    5    6 ar
    16    6    7 ar
    17    6   47 1
    18    7    8 ar
    19    7   48 1
    20    8    9 ar
    21    8   11 1
    22    9   10 ar
    23    9   49 1
    24   10   50 1
    25   11   12 2
    26   11   13 2
    27   11   14 1
    28   14   24 1
    29   14   15 1
    30   15   16 1
    31   15   51 1
    32   15   52 1
    33   16   17 1
    34   16   53 1
    35   16   54 1
    36   17   23 1
    37   17   18 2
    38   18   19 1
    39   18   55 1
    40   19   20 2
    41   19   21 1
    42   21   22 1
    43   21   56 1
    44   21   57 1
    45   22   23 1
    46   22   58 1
    47   22   59 1
    48   23   24 1
    49   23   25 1
    50   24   60 1
    51   24   61 1
    52   25   26 1
    53   25   62 1
    54   25   63 1
    55   26   31 ar
    56   26   27 ar
    57   27   28 ar
    58   27   64 1
    59   28   29 ar
    60   28   65 1
    61   29   30 ar
    62   29   32 1
    63   30   31 ar
    64   30   66 1
    65   31   67 1
    66   32   37 ar
    67   32   33 ar
    68   33   34 ar
    69   33   68 1
    70   34   35 ar
    71   34   69 1
    72   35   36 ar
    73   36   37 ar
    74   36   70 1
    75   37   71 1
@<TRIPOS>MOLECULE
CHEMBL246834__1
   71    75     0     0     0
SMALL
USER_CHARGES

@<TRIPOS>ATOM
      1 C1          0.9315    2.2244    0.2996 C.3       1 <0>        -0.1402
      2 C2          1.1181    0.7181    0.4924 C.3       1 <0>        -0.0393
      3 C3          2.0798    0.4681    1.6558 C.3       1 <0>        -0.1413
      4 C4         -0.2342    0.0721    0.8008 C.3       1 <0>        -0.1482
      5 C5          1.6863    0.1170   -0.7673 C.ar      1 <0>        -0.0101
      6 C6          0.9818   -0.8596   -1.4460 C.ar      1 <0>        -0.1418
      7 C7          1.5030   -1.4110   -2.6014 C.ar      1 <0>        -0.0172
      8 C8          2.7287   -0.9854   -3.0785 C.ar      1 <0>        -0.6847
      9 C9          3.4329   -0.0081   -2.4003 C.ar      1 <0>        -0.0174
     10 C10         2.9096    0.5463   -1.2471 C.ar      1 <0>        -0.1363
     11 S1          3.3937   -1.6890   -4.5506 S.o2      1 <0>         2.6871
     12 O1          4.8019   -1.5098   -4.4864 O.2       1 <0>        -0.9495
     13 O2          2.7945   -2.9694   -4.6954 O.2       1 <0>        -0.9511
     14 N1          2.8569   -0.7692   -5.8188 N.pl3     1 <0>        -0.9972
     15 C11         1.5922   -1.0906   -6.4945 C.3       1 <0>         0.1202
     16 C12         1.8868   -1.3530   -7.9749 C.3       1 <0>        -0.1118
     17 C13         2.7220   -0.2071   -8.5178 C.2       1 <0>        -0.0254
     18 C14         2.3098    0.3793   -9.6413 C.2       1 <0>        -0.2245
     19 C15         3.0890    1.4774  -10.2237 C.2       1 <0>         0.3895
     20 O3          2.5916    2.2838  -10.9816 O.2       1 <0>        -0.4561
     21 C16         4.5506    1.5491   -9.8256 C.3       1 <0>        -0.1876
     22 C17         4.6128    1.4642   -8.3017 C.3       1 <0>        -0.1025
     23 C18         3.9612    0.1967   -7.7777 C.3       1 <0>        -0.0332
     24 C19         3.6319    0.3860   -6.2855 C.3       1 <0>         0.1284
     25 C20         4.9762   -0.9428   -7.8882 C.3       1 <0>        -0.0773
     26 C21         5.4015   -1.0990   -9.3255 C.ar      1 <0>        -0.0687
     27 C22         4.5860   -1.7738  -10.2160 C.ar      1 <0>        -0.1140
     28 C23         4.9705   -1.9199  -11.5334 C.ar      1 <0>        -0.0970
     29 C24         6.1829   -1.3860  -11.9659 C.ar      1 <0>        -0.0582
     30 C25         7.0005   -0.7072  -11.0645 C.ar      1 <0>        -0.1010
     31 C26         6.6033   -0.5622   -9.7507 C.ar      1 <0>        -0.1144
     32 C27         6.6018   -1.5402  -13.3808 C.ar      1 <0>         0.0020
     33 C28         5.7921   -2.2133  -14.2999 C.ar      1 <0>        -0.1676
     34 C29         6.2199   -2.3341  -15.6062 C.ar      1 <0>         0.1040
     35 N2          7.3748   -1.8252  -15.9903 N.ar      1 <0>        -0.4876
     36 C30         8.1683   -1.1829  -15.1547 C.ar      1 <0>         0.1038
     37 C31         7.8143   -1.0114  -13.8322 C.ar      1 <0>        -0.1675
     38 H1          1.8949    2.6847    0.0799 H         1 <0>         0.0593
     39 H2          0.2463    2.4026   -0.5292 H         1 <0>         0.0581
     40 H3          0.5205    2.6592    1.2107 H         1 <0>         0.0642
     41 H4          1.6688    0.9029    2.5669 H         1 <0>         0.0644
     42 H5          2.2127   -0.6050    1.7931 H         1 <0>         0.0588
     43 H6          3.0432    0.9284    1.4361 H         1 <0>         0.0596
     44 H7         -0.9194    0.2503   -0.0280 H         1 <0>         0.0608
     45 H8         -0.1013   -1.0010    0.9381 H         1 <0>         0.0612
     46 H9         -0.6452    0.5069    1.7119 H         1 <0>         0.0636
     47 H10         0.0242   -1.1921   -1.0733 H         1 <0>         0.1381
     48 H11         0.9529   -2.1745   -3.1313 H         1 <0>         0.1388
     49 H12         4.3906    0.3241   -2.7728 H         1 <0>         0.1392
     50 H13         3.4580    1.3125   -0.7193 H         1 <0>         0.1327
     51 H14         1.1525   -1.9810   -6.0449 H         1 <0>         0.1015
     52 H15         0.9033   -0.2511   -6.4012 H         1 <0>         0.0800
     53 H16         2.4381   -2.2877   -8.0777 H         1 <0>         0.0914
     54 H17         0.9499   -1.4164   -8.5283 H         1 <0>         0.0945
     55 H18         1.4026    0.0459  -10.1232 H         1 <0>         0.1360
     56 H19         5.0960    0.7144  -10.2659 H         1 <0>         0.1212
     57 H20         4.9805    2.4925  -10.1621 H         1 <0>         0.0907
     58 H21         5.6565    1.4824   -7.9877 H         1 <0>         0.0869
     59 H22         4.1011    2.3278   -7.8771 H         1 <0>         0.0729
     60 H23         3.0465    1.2956   -6.1513 H         1 <0>         0.0812
     61 H24         4.5566    0.4594   -5.7131 H         1 <0>         0.1047
     62 H25         5.8474   -0.7141   -7.2743 H         1 <0>         0.0927
     63 H26         4.5205   -1.8702   -7.5413 H         1 <0>         0.0779
     64 H27         3.6468   -2.1874   -9.8796 H         1 <0>         0.1264
     65 H28         4.3332   -2.4472  -12.2277 H         1 <0>         0.1271
     66 H29         7.9412   -0.2917  -11.3943 H         1 <0>         0.1290
     67 H30         7.2342   -0.0324   -9.0522 H         1 <0>         0.1309
     68 H31         4.8458   -2.6331  -13.9922 H         1 <0>         0.1367
     69 H32         5.6011   -2.8525  -16.3237 H         1 <0>         0.1579
     70 H33         9.1056   -0.7823  -15.5116 H         1 <0>         0.1580
     71 H34         8.4666   -0.4805  -13.1547 H         1 <0>         0.1373
@<TRIPOS>BOND
     1    1    2 1
     2    1   38 1
     3    1   39 1
     4    1   40 1
     5    2    3 1
     6    2    4 1
     7    2    5 1
     8    3   41 1
     9    3   42 1
    10    3   43 1
    11    4   44 1
    12    4   45 1
    13    4   46 1
    14    5   10 ar
    15    5    6 ar
    16    6    7 ar
    17    6   47 1
    18    7    8 ar
    19    7   48 1
    20    8    9 ar
    21    8   11 1
    22    9   10 ar
    23    9   49 1
    24   10   50 1
    25   11   12 2
    26   11   13 2
    27   11   14 1
    28   14   24 1
    29   14   15 1
    30   15   16 1
    31   15   51 1
    32   15   52 1
    33   16   17 1
    34   16   53 1
    35   16   54 1
    36   17   23 1
    37   17   18 2
    38   18   19 1
    39   18   55 1
    40   19   20 2
    41   19   21 1
    42   21   22 1
    43   21   56 1
    44   21   57 1
    45   22   23 1
    46   22   58 1
    47   22   59 1
    48   23   24 1
    49   23   25 1
    50   24   60 1
    51   24   61 1
    52   25   26 1
    53   25   62 1
    54   25   63 1
    55   26   31 ar
    56   26   27 ar
    57   27   28 ar
    58   27   64 1
    59   28   29 ar
    60   28   65 1
    61   29   30 ar
    62   29   32 1
    63   30   31 ar
    64   30   66 1
    65   31   67 1
    66   32   37 ar
    67   32   33 ar
    68   33   34 ar
    69   33   68 1
    70   34   35 ar
    71   34   69 1
    72   35   36 ar
    73   36   37 ar
    74   36   70 1
    75   37   71 1
@<TRIPOS>MOLECULE
CHEMBL219068
   53    55     0     0     0
SMALL
USER_CHARGES

@<TRIPOS>ATOM
      1 C1          0.9141   -0.2785    0.9036 C.3       1 <0>        -0.1554
      2 C2         -0.0669   -0.5958   -0.2268 C.3       1 <0>        -0.0126
      3 C3          0.3005   -1.9400   -0.8585 C.3       1 <0>        -0.1358
      4 C4         -1.4877   -0.6682    0.3361 C.3       1 <0>        -0.1525
      5 C5         -1.6409    0.3514    1.4666 C.3       1 <0>         0.0786
      6 C6         -3.0196    0.1948    2.1112 C.3       1 <0>         0.0600
      7 N1         -3.2023    1.2305    3.1311 N.pl3     1 <0>        -0.5195
      8 C7         -2.6837    1.0563    4.3592 C.2       1 <0>         0.4394
      9 N2         -2.8024    1.9301    5.3199 N.2       1 <0>        -0.5948
     10 C8         -3.4650    3.0894    5.1456 C.2       1 <0>         0.5329
     11 O1         -3.5668    3.8963    6.0535 O.2       1 <0>        -0.4804
     12 C9         -4.0631    3.3544    3.8249 C.ar      1 <0>        -0.2087
     13 C10        -3.9010    2.3807    2.8222 C.ar      1 <0>         0.1901
     14 C11        -4.4456    2.5944    1.5636 C.ar      1 <0>        -0.1779
     15 C12        -5.1356    3.7609    1.3071 C.ar      1 <0>        -0.0498
     16 C13        -5.2910    4.7237    2.2940 C.ar      1 <0>        -0.1509
     17 C14        -4.7662    4.5253    3.5531 C.ar      1 <0>        -0.0245
     18 C15        -1.5004    1.7657    0.9002 C.3       1 <0>         0.4634
     19 F1         -2.4253    1.9482   -0.1334 F         1 <0>        -0.1682
     20 F2         -1.7426    2.6999    1.9131 F         1 <0>        -0.1691
     21 F3         -0.2047    1.9424    0.4031 F         1 <0>        -0.1476
     22 O2         -0.6276    0.1289    2.4493 O.3       1 <0>        -0.5197
     23 C16         0.0045    0.4869   -1.2726 C.ar      1 <0>        -0.0653
     24 C17        -1.1388    0.8759   -1.9439 C.ar      1 <0>        -0.1383
     25 C18        -1.0736    1.8708   -2.9043 C.ar      1 <0>         0.0710
     26 C19         0.1372    2.4772   -3.1938 C.ar      1 <0>        -0.1218
     27 C20         1.2817    2.0903   -2.5242 C.ar      1 <0>        -0.1753
     28 C21         1.2168    1.0973   -1.5575 C.ar      1 <0>         0.1279
     29 O3          2.3414    0.7195   -0.8938 O.3       1 <0>        -0.2947
     30 C22         3.5547    1.3910   -1.2386 C.3       1 <0>         0.0152
     31 F4         -2.1923    2.2502   -3.5599 F         1 <0>        -0.1397
     32 H1          1.9356   -0.3915    0.5406 H         1 <0>         0.0702
     33 H2          0.7598    0.7462    1.2416 H         1 <0>         0.0919
     34 H3          0.7456   -0.9642    1.7340 H         1 <0>         0.0589
     35 H4          0.1643   -2.7352   -0.1256 H         1 <0>         0.0622
     36 H5         -0.3426   -2.1250   -1.7190 H         1 <0>         0.0557
     37 H6          1.3414   -1.9175   -1.1811 H         1 <0>         0.0650
     38 H7         -2.2037   -0.4443   -0.4546 H         1 <0>         0.0975
     39 H8         -1.6748   -1.6701    0.7226 H         1 <0>         0.1035
     40 H9         -3.7912    0.2963    1.3480 H         1 <0>         0.1209
     41 H10        -3.0944   -0.7889    2.5748 H         1 <0>         0.1272
     42 H11        -2.1407    0.1447    4.5608 H         1 <0>         0.1991
     43 H12        -4.3293    1.8512    0.7887 H         1 <0>         0.1369
     44 H13        -5.5592    3.9267    0.3276 H         1 <0>         0.1356
     45 H14        -5.8339    5.6316    2.0765 H         1 <0>         0.1348
     46 H15        -4.8896    5.2766    4.3190 H         1 <0>         0.1423
     47 H16        -0.6562   -0.7499    2.8518 H         1 <0>         0.3931
     48 H17        -2.0836    0.4033   -1.7195 H         1 <0>         0.1435
     49 H18         0.1867    3.2528   -3.9438 H         1 <0>         0.1364
     50 H19         2.2259    2.5631   -2.7505 H         1 <0>         0.1373
     51 H20         3.7707    1.2317   -2.2950 H         1 <0>         0.0550
     52 H21         3.4463    2.4585   -1.0469 H         1 <0>         0.0555
     53 H22         4.3728    0.9951   -0.6368 H         1 <0>         0.1015
@<TRIPOS>BOND
     1    1    2 1
     2    1   32 1
     3    1   33 1
     4    1   34 1
     5    2    3 1
     6    2    4 1
     7    2   23 1
     8    3   35 1
     9    3   36 1
    10    3   37 1
    11    4    5 1
    12    4   38 1
    13    4   39 1
    14    5    6 1
    15    5   18 1
    16    5   22 1
    17    6    7 1
    18    6   40 1
    19    6   41 1
    20    7   13 1
    21    7    8 1
    22    8    9 2
    23    8   42 1
    24    9   10 1
    25   10   11 2
    26   10   12 1
    27   12   17 ar
    28   12   13 ar
    29   13   14 ar
    30   14   15 ar
    31   14   43 1
    32   15   16 ar
    33   15   44 1
    34   16   17 ar
    35   16   45 1
    36   17   46 1
    37   18   19 1
    38   18   20 1
    39   18   21 1
    40   22   47 1
    41   23   28 ar
    42   23   24 ar
    43   24   25 ar
    44   24   48 1
    45   25   26 ar
    46   25   31 1
    47   26   27 ar
    48   26   49 1
    49   27   28 ar
    50   27   50 1
    51   28   29 1
    52   29   30 1
    53   30   51 1
    54   30   52 1
    55   30   53 1
@<TRIPOS>MOLECULE
CHEMBL219068__1
   53    55     0     0     0
SMALL
USER_CHARGES

@<TRIPOS>ATOM
      1 C1          0.1982    0.4969   -1.5632 C.3       1 <0>        -0.1374
      2 C2         -0.0998    0.6096   -0.0668 C.3       1 <0>        -0.0109
      3 C3         -0.1595    2.0856    0.3316 C.3       1 <0>        -0.1582
      4 C4         -1.4437   -0.0555    0.2372 C.3       1 <0>        -0.1558
      5 C5         -2.0834    0.6191    1.4523 C.3       1 <0>         0.0784
      6 C6         -3.4729    0.0255    1.6926 C.3       1 <0>         0.0596
      7 N1         -4.0854    0.6715    2.8561 N.pl3     1 <0>        -0.5204
      8 C7         -3.8925    0.1572    4.0832 C.2       1 <0>         0.4349
      9 N2         -4.4023    0.6732    5.1669 N.2       1 <0>        -0.5918
     10 C8         -5.1719    1.7778    5.1317 C.2       1 <0>         0.5324
     11 O1         -5.6409    2.2483    6.1537 O.2       1 <0>        -0.4789
     12 C9         -5.4302    2.4014    3.8216 C.ar      1 <0>        -0.2085
     13 C10        -4.8518    1.8072    2.6848 C.ar      1 <0>         0.1914
     14 C11        -5.0676    2.3666    1.4331 C.ar      1 <0>        -0.1660
     15 C12        -5.8425    3.5018    1.3168 C.ar      1 <0>        -0.0528
     16 C13        -6.4085    4.0912    2.4381 C.ar      1 <0>        -0.1502
     17 C14        -6.2141    3.5447    3.6885 C.ar      1 <0>        -0.0227
     18 C15        -1.2084    0.3846    2.6853 C.3       1 <0>         0.4591
     19 F1          0.0793    0.8750    2.4434 F         1 <0>        -0.1408
     20 F2         -1.7623    1.0508    3.7838 F         1 <0>        -0.1673
     21 F3         -1.1421   -0.9863    2.9562 F         1 <0>        -0.1689
     22 O2         -2.2003    2.0228    1.2112 O.3       1 <0>        -0.5134
     23 C16         0.9894   -0.0781    0.7154 C.ar      1 <0>        -0.0518
     24 C17         0.7094   -1.2316    1.4228 C.ar      1 <0>        -0.1611
     25 C18         1.7097   -1.8638    2.1411 C.ar      1 <0>         0.0760
     26 C19         2.9920   -1.3412    2.1521 C.ar      1 <0>        -0.1253
     27 C20         3.2747   -0.1883    1.4458 C.ar      1 <0>        -0.1698
     28 C21         2.2745    0.4432    0.7210 C.ar      1 <0>         0.1180
     29 O3          2.5526    1.5749    0.0209 O.3       1 <0>        -0.3023
     30 C22         3.8976    2.0551    0.0717 C.3       1 <0>         0.0208
     31 F4          1.4346   -2.9915    2.8323 F         1 <0>        -0.1384
     32 H1          1.1100    1.0475   -1.7947 H         1 <0>         0.0713
     33 H2          0.3296   -0.5519   -1.8296 H         1 <0>         0.0549
     34 H3         -0.6328    0.9148   -2.1316 H         1 <0>         0.0602
     35 H4         -0.9790    2.5719   -0.1977 H         1 <0>         0.0585
     36 H5         -0.3230    2.1655    1.4063 H         1 <0>         0.0929
     37 H6          0.7808    2.5709    0.0700 H         1 <0>         0.0636
     38 H7         -2.1032    0.0474   -0.6246 H         1 <0>         0.1037
     39 H8         -1.2860   -1.1129    0.4498 H         1 <0>         0.1006
     40 H9         -4.0963    0.1925    0.8142 H         1 <0>         0.1265
     41 H10        -3.3837   -1.0452    1.8765 H         1 <0>         0.1234
     42 H11        -3.2837   -0.7300    4.1763 H         1 <0>         0.1936
     43 H12        -4.6307    1.9155    0.5545 H         1 <0>         0.1298
     44 H13        -6.0101    3.9367    0.3425 H         1 <0>         0.1360
     45 H14        -7.0123    4.9800    2.3295 H         1 <0>         0.1346
     46 H15        -6.6567    4.0058    4.5591 H         1 <0>         0.1423
     47 H16        -2.7428    2.2460    0.4424 H         1 <0>         0.3885
     48 H17        -0.2904   -1.6398    1.4156 H         1 <0>         0.1542
     49 H18         3.7714   -1.8351    2.7134 H         1 <0>         0.1369
     50 H19         4.2748    0.2193    1.4549 H         1 <0>         0.1376
     51 H20         4.1655    2.2765    1.1048 H         1 <0>         0.0560
     52 H21         4.5704    1.2937   -0.3230 H         1 <0>         0.0557
     53 H22         3.9827    2.9613   -0.5280 H         1 <0>         0.1016
@<TRIPOS>BOND
     1    1    2 1
     2    1   32 1
     3    1   33 1
     4    1   34 1
     5    2    3 1
     6    2    4 1
     7    2   23 1
     8    3   35 1
     9    3   36 1
    10    3   37 1
    11    4    5 1
    12    4   38 1
    13    4   39 1
    14    5    6 1
    15    5   18 1
    16    5   22 1
    17    6    7 1
    18    6   40 1
    19    6   41 1
    20    7   13 1
    21    7    8 1
    22    8    9 2
    23    8   42 1
    24    9   10 1
    25   10   11 2
    26   10   12 1
    27   12   17 ar
    28   12   13 ar
    29   13   14 ar
    30   14   15 ar
    31   14   43 1
    32   15   16 ar
    33   15   44 1
    34   16   17 ar
    35   16   45 1
    36   17   46 1
    37   18   19 1
    38   18   20 1
    39   18   21 1
    40   22   47 1
    41   23   28 ar
    42   23   24 ar
    43   24   25 ar
    44   24   48 1
    45   25   26 ar
    46   25   31 1
    47   26   27 ar
    48   26   49 1
    49   27   28 ar
    50   27   50 1
    51   28   29 1
    52   29   30 1
    53   30   51 1
    54   30   52 1
    55   30   53 1
@<TRIPOS>MOLECULE
CHEMBL258191
   47    50     0     0     0
SMALL
USER_CHARGES

@<TRIPOS>ATOM
      1 C1         -0.3199    1.3098   -0.2803 C.3       1 <0>        -0.1077
      2 C2         -0.2769   -0.1934   -0.1825 C.ar      1 <0>        -0.1524
      3 C3         -0.3757   -0.9588   -1.3241 C.ar      1 <0>        -0.0526
      4 C4         -0.3360   -2.3493   -1.2314 C.ar      1 <0>        -0.0910
      5 C5         -0.1985   -2.9586    0.0151 C.ar      1 <0>         0.0104
      6 C6         -0.1004   -2.1873    1.1594 C.ar      1 <0>        -0.1366
      7 C7         -0.1319   -0.8036    1.0601 C.ar      1 <0>         0.2362
      8 N1         -0.0198   -0.0012    2.2004 N.pl3     1 <0>        -0.7350
      9 C8         -0.1659   -0.6220    3.5238 C.3       1 <0>         0.1711
     10 C9          0.6484   -1.9224    3.5241 C.3       1 <0>        -0.1194
     11 C10         0.0420   -2.8776    2.4905 C.3       1 <0>        -0.0404
     12 C11         0.9656   -4.0875    2.3356 C.3       1 <0>        -0.1586
     13 C12        -1.6399   -0.9337    3.7901 C.3       1 <0>        -0.1615
     14 C13         0.3677    0.3237    4.6016 C.3       1 <0>        -0.1538
     15 Cl1        -0.1507   -4.6900    0.1316 Cl        1 <0>        -0.0557
     16 C14        -0.4403   -3.1785   -2.4559 C.ar      1 <0>        -0.0513
     17 C15         0.5591   -3.1289   -3.4200 C.ar      1 <0>        -0.0839
     18 C16         0.4692   -3.9006   -4.5672 C.ar      1 <0>        -0.1475
     19 C17        -0.6123   -4.7292   -4.7701 C.ar      1 <0>        -0.0689
     20 C18        -1.6288   -4.7947   -3.8137 C.ar      1 <0>        -0.1110
     21 C19        -1.5446   -4.0206   -2.6441 C.ar      1 <0>         0.1213
     22 N2         -2.6659   -4.2917   -1.8950 N.pl3     1 <0>        -0.5890
     23 H1         -2.8715   -3.8922   -1.0353 H         1 <0>         0.4128
     24 C20        -3.4484   -5.2080   -2.5429 C.2       1 <0>         0.0504
     25 C21        -2.8825   -5.5461   -3.7125 C.2       1 <0>        -0.2053
     26 H2          0.6914    1.6944   -0.4123 H         1 <0>         0.0685
     27 H3         -0.9335    1.6010   -1.1329 H         1 <0>         0.0697
     28 H4         -0.7488    1.7212    0.6334 H         1 <0>         0.0618
     29 H5         -0.4839   -0.4831   -2.2876 H         1 <0>         0.1315
     30 H6          0.1519    0.9500    2.1187 H         1 <0>         0.4027
     31 H7          1.6849   -1.7043    3.2668 H         1 <0>         0.0728
     32 H8          0.6041   -2.3808    4.5121 H         1 <0>         0.0786
     33 H9         -0.9382   -3.2148    2.8276 H         1 <0>         0.0822
     34 H10         1.7101   -3.8802    1.5670 H         1 <0>         0.0591
     35 H11         1.4669   -4.2856    3.2830 H         1 <0>         0.0508
     36 H12         0.3777   -4.9587    2.0465 H         1 <0>         0.0732
     37 H13        -2.0099   -1.6191    3.0276 H         1 <0>         0.0613
     38 H14        -1.7422   -1.3940    4.7728 H         1 <0>         0.0662
     39 H15        -2.2178   -0.0100    3.7596 H         1 <0>         0.0584
     40 H16        -0.1951    1.2569    4.5772 H         1 <0>         0.0623
     41 H17         0.2569   -0.1419    5.5809 H         1 <0>         0.0743
     42 H18         1.4216    0.5300    4.4146 H         1 <0>         0.0634
     43 H19         1.4126   -2.4834   -3.2742 H         1 <0>         0.1238
     44 H20         1.2531   -3.8519   -5.3085 H         1 <0>         0.1234
     45 H21        -0.6746   -5.3271   -5.6673 H         1 <0>         0.1215
     46 H22        -4.3866   -5.5944   -2.1731 H         1 <0>         0.1685
     47 H23        -3.2712   -6.2480   -4.4353 H         1 <0>         0.1454
@<TRIPOS>BOND
     1    1    2 1
     2    1   26 1
     3    1   27 1
     4    1   28 1
     5    2    7 ar
     6    2    3 ar
     7    3    4 ar
     8    3   29 1
     9    4    5 ar
    10    4   16 1
    11    5    6 ar
    12    5   15 1
    13    6   11 1
    14    6    7 ar
    15    7    8 1
    16    8    9 1
    17    8   30 1
    18    9   10 1
    19    9   13 1
    20    9   14 1
    21   10   11 1
    22   10   31 1
    23   10   32 1
    24   11   12 1
    25   11   33 1
    26   12   34 1
    27   12   35 1
    28   12   36 1
    29   13   37 1
    30   13   38 1
    31   13   39 1
    32   14   40 1
    33   14   41 1
    34   14   42 1
    35   16   21 ar
    36   16   17 ar
    37   17   18 ar
    38   17   43 1
    39   18   19 ar
    40   18   44 1
    41   19   20 ar
    42   19   45 1
    43   20   25 1
    44   20   21 ar
    45   21   22 1
    46   22   23 1
    47   22   24 1
    48   24   25 2
    49   24   46 1
    50   25   47 1
@<TRIPOS>MOLECULE
CHEMBL258191__1
   47    50     0     0     0
SMALL
USER_CHARGES

@<TRIPOS>ATOM
      1 C1         -0.1479    1.5789    0.1579 C.3       1 <0>        -0.1044
      2 C2         -0.1211    0.0732    0.1005 C.ar      1 <0>        -0.1523
      3 C3         -0.1675   -0.5683   -1.1182 C.ar      1 <0>        -0.0528
      4 C4         -0.1422   -1.9612   -1.1692 C.ar      1 <0>        -0.0907
      5 C5         -0.0683   -2.6982    0.0120 C.ar      1 <0>         0.0104
      6 C6         -0.0210   -2.0512    1.2339 C.ar      1 <0>        -0.1360
      7 C7         -0.0437   -0.6644    1.2783 C.ar      1 <0>         0.2363
      8 N1         -0.0006    0.0135    2.5012 N.pl3     1 <0>        -0.7359
      9 C8          0.3773   -0.7277    3.7120 C.3       1 <0>         0.1724
     10 C9         -0.3796   -2.0623    3.7002 C.3       1 <0>        -0.1198
     11 C10         0.0637   -2.8773    2.4904 C.3       1 <0>        -0.0411
     12 C11        -0.8281   -4.1119    2.3441 C.3       1 <0>        -0.1560
     13 C12        -0.0106    0.0770    4.9542 C.3       1 <0>        -0.1536
     14 C13         1.8851   -0.9871    3.7113 C.3       1 <0>        -0.1619
     15 Cl1        -0.0362   -4.4328   -0.0506 Cl        1 <0>        -0.0557
     16 C14        -0.1943   -2.6575   -2.4770 C.ar      1 <0>        -0.0515
     17 C15         0.8501   -2.5202   -3.3833 C.ar      1 <0>        -0.0839
     18 C16         0.8091   -3.1676   -4.6076 C.ar      1 <0>        -0.1475
     19 C17        -0.2674   -3.9574   -4.9457 C.ar      1 <0>        -0.0688
     20 C18        -1.3286   -4.1096   -4.0496 C.ar      1 <0>        -0.1109
     21 C19        -1.2944   -3.4621   -2.8031 C.ar      1 <0>         0.1215
     22 N2         -2.4519   -3.7959   -2.1391 N.pl3     1 <0>        -0.5889
     23 H1         -2.6951   -3.4854   -1.2529 H         1 <0>         0.4128
     24 C20        -3.2093   -4.6305   -2.9146 C.2       1 <0>         0.0505
     25 C21        -2.5911   -4.8522   -4.0855 C.2       1 <0>        -0.2053
     26 H2          0.8716    1.9623    0.1172 H         1 <0>         0.0698
     27 H3         -0.7153    1.9647   -0.6890 H         1 <0>         0.0692
     28 H4         -0.6195    1.8987    1.0872 H         1 <0>         0.0587
     29 H5         -0.2236    0.0063   -2.0310 H         1 <0>         0.1317
     30 H6         -0.2163    0.9580    2.5489 H         1 <0>         0.4019
     31 H7         -0.1615   -2.6139    4.6147 H         1 <0>         0.0792
     32 H8         -1.4510   -1.8739    3.6317 H         1 <0>         0.0703
     33 H9          1.0951   -3.1953    2.6431 H         1 <0>         0.0818
     34 H10        -0.2591   -4.9184    1.8815 H         1 <0>         0.0748
     35 H11        -1.1737   -4.4291    3.3280 H         1 <0>         0.0511
     36 H12        -1.6867   -3.8678    1.7186 H         1 <0>         0.0552
     37 H13        -1.0874    0.2457    4.9562 H         1 <0>         0.0628
     38 H14         0.2720   -0.4775    5.8491 H         1 <0>         0.0744
     39 H15         0.5075    1.0359    4.9423 H         1 <0>         0.0627
     40 H16         2.4174   -0.0361    3.6901 H         1 <0>         0.0589
     41 H17         2.1596   -1.5370    4.6115 H         1 <0>         0.0662
     42 H18         2.1526   -1.5729    2.8320 H         1 <0>         0.0622
     43 H19         1.7003   -1.9037   -3.1315 H         1 <0>         0.1239
     44 H20         1.6276   -3.0516   -5.3026 H         1 <0>         0.1235
     45 H21        -0.2915   -4.4582   -5.9023 H         1 <0>         0.1215
     46 H22        -4.1668   -5.0419   -2.6310 H         1 <0>         0.1685
     47 H23        -2.9502   -5.4706   -4.8949 H         1 <0>         0.1454
@<TRIPOS>BOND
     1    1    2 1
     2    1   26 1
     3    1   27 1
     4    1   28 1
     5    2    7 ar
     6    2    3 ar
     7    3    4 ar
     8    3   29 1
     9    4    5 ar
    10    4   16 1
    11    5    6 ar
    12    5   15 1
    13    6   11 1
    14    6    7 ar
    15    7    8 1
    16    8    9 1
    17    8   30 1
    18    9   10 1
    19    9   13 1
    20    9   14 1
    21   10   11 1
    22   10   31 1
    23   10   32 1
    24   11   12 1
    25   11   33 1
    26   12   34 1
    27   12   35 1
    28   12   36 1
    29   13   37 1
    30   13   38 1
    31   13   39 1
    32   14   40 1
    33   14   41 1
    34   14   42 1
    35   16   21 ar
    36   16   17 ar
    37   17   18 ar
    38   17   43 1
    39   18   19 ar
    40   18   44 1
    41   19   20 ar
    42   19   45 1
    43   20   25 1
    44   20   21 ar
    45   21   22 1
    46   22   23 1
    47   22   24 1
    48   24   25 2
    49   24   46 1
    50   25   47 1
@<TRIPOS>MOLECULE
CHEMBL216272
   57    60     0     0     0
SMALL
USER_CHARGES

@<TRIPOS>ATOM
      1 C1         -4.6599    7.1264   -0.9269 C.3       1 <0>        -0.1040
      2 C2         -3.7411    6.2453   -0.1202 C.2       1 <0>         0.1577
      3 C3         -4.1982    4.9297    0.3525 C.ar      1 <0>        -0.0561
      4 C4         -5.3507    4.3194   -0.1190 C.ar      1 <0>        -0.1012
      5 C5         -5.7174    3.0778    0.3840 C.ar      1 <0>         0.1735
      6 C6         -4.9401    2.4459    1.3537 C.ar      1 <0>        -0.1056
      7 C7         -3.7904    3.0403    1.8290 C.ar      1 <0>        -0.0263
      8 C8         -3.4088    4.2804    1.3330 C.ar      1 <0>        -0.1626
      9 C9         -2.1913    4.9824    1.7743 C.2       1 <0>         0.4867
     10 O1         -1.7121    4.7927    2.8761 O.2       1 <0>        -0.4338
     11 O2         -1.6304    5.8465    0.8993 O.3       1 <0>        -0.1617
     12 N1         -2.5374    6.6363    0.1603 N.2       1 <0>        -0.2542
     13 N2         -6.8753    2.4571   -0.0853 N.am      1 <0>        -0.6578
     14 C10        -6.9069    1.1187   -0.2402 C.2       1 <0>         0.4921
     15 O3         -5.9663    0.4440    0.1216 O.2       1 <0>        -0.4778
     16 C11        -8.1111    0.4604   -0.8630 C.3       1 <0>         0.0868
     17 C12        -8.2045   -0.9896   -0.3840 C.3       1 <0>        -0.1363
     18 C13        -9.4689   -1.6349   -0.9547 C.3       1 <0>        -0.0188
     19 C14        -9.8716   -2.8260   -0.0830 C.3       1 <0>        -0.1350
     20 C15       -10.6030   -0.6079   -0.9703 C.3       1 <0>        -0.1584
     21 C16        -9.2008   -2.1086   -2.3599 C.ar      1 <0>        -0.0949
     22 C17        -7.9446   -2.5641   -2.7038 C.ar      1 <0>        -0.0940
     23 C18        -7.6878   -3.0009   -3.9900 C.ar      1 <0>        -0.1415
     24 C19        -8.6959   -2.9767   -4.9379 C.ar      1 <0>        -0.0740
     25 C20        -9.9495   -2.5198   -4.5977 C.ar      1 <0>        -0.1764
     26 C21       -10.2231   -2.0904   -3.3050 C.ar      1 <0>         0.1281
     27 O4        -11.5238   -1.7092   -3.1773 O.3       1 <0>        -0.2922
     28 C22       -12.0717   -1.4512   -4.4813 C.3       1 <0>         0.0468
     29 C23       -11.2283   -2.3642   -5.3977 C.3       1 <0>        -0.1105
     30 C24        -7.9755    0.4865   -2.3867 C.3       1 <0>         0.4723
     31 F1         -6.9292   -0.3566   -2.7763 F         1 <0>        -0.1564
     32 F2         -9.1695    0.0473   -2.9687 F         1 <0>        -0.1398
     33 F3         -7.7038    1.7924   -2.8085 F         1 <0>        -0.1775
     34 O5         -9.2923    1.1663   -0.4778 O.3       1 <0>        -0.5172
     35 H1         -4.1425    8.0501   -1.1860 H         1 <0>         0.0948
     36 H2         -4.9538    6.6065   -1.8387 H         1 <0>         0.1000
     37 H3         -5.5478    7.3598   -0.3394 H         1 <0>         0.0990
     38 H4         -5.9567    4.8045   -0.8699 H         1 <0>         0.1522
     39 H5         -5.2415    1.4820    1.7363 H         1 <0>         0.1557
     40 H6         -3.1922    2.5464    2.5804 H         1 <0>         0.1522
     41 H7         -7.6577    2.9888   -0.3001 H         1 <0>         0.4248
     42 H8         -7.3290   -1.5421   -0.7251 H         1 <0>         0.1070
     43 H9         -8.2456   -1.0106    0.7051 H         1 <0>         0.0999
     44 H10       -10.1485   -2.4724    0.9102 H         1 <0>         0.0608
     45 H11       -10.7208   -3.3374   -0.5364 H         1 <0>         0.0628
     46 H12        -9.0325   -3.5170   -0.0018 H         1 <0>         0.0576
     47 H13       -10.3611    0.1898   -1.6726 H         1 <0>         0.0964
     48 H14       -11.5290   -1.0939   -1.2775 H         1 <0>         0.0660
     49 H15       -10.7267   -0.1880    0.0279 H         1 <0>         0.0522
     50 H16        -7.1577   -2.5792   -1.9643 H         1 <0>         0.1318
     51 H17        -6.7040   -3.3594   -4.2543 H         1 <0>         0.1270
     52 H18        -8.4995   -3.3164   -5.9441 H         1 <0>         0.1225
     53 H19       -13.1257   -1.7265   -4.5186 H         1 <0>         0.1054
     54 H20       -11.9345   -0.4059   -4.7580 H         1 <0>         0.0750
     55 H21       -11.0311   -1.8892   -6.3587 H         1 <0>         0.0902
     56 H22       -11.7218   -3.3264   -5.5344 H         1 <0>         0.0884
     57 H23        -9.4423    1.1904    0.4772 H         1 <0>         0.3984
@<TRIPOS>BOND
     1    1    2 1
     2    1   35 1
     3    1   36 1
     4    1   37 1
     5    2   12 2
     6    2    3 1
     7    3    8 ar
     8    3    4 ar
     9    4    5 ar
    10    4   38 1
    11    5    6 ar
    12    5   13 1
    13    6    7 ar
    14    6   39 1
    15    7    8 ar
    16    7   40 1
    17    8    9 1
    18    9   10 2
    19    9   11 1
    20   11   12 1
    21   13   14 am
    22   13   41 1
    23   14   15 2
    24   14   16 1
    25   16   17 1
    26   16   30 1
    27   16   34 1
    28   17   18 1
    29   17   42 1
    30   17   43 1
    31   18   19 1
    32   18   20 1
    33   18   21 1
    34   19   44 1
    35   19   45 1
    36   19   46 1
    37   20   47 1
    38   20   48 1
    39   20   49 1
    40   21   26 ar
    41   21   22 ar
    42   22   23 ar
    43   22   50 1
    44   23   24 ar
    45   23   51 1
    46   24   25 ar
    47   24   52 1
    48   25   29 1
    49   25   26 ar
    50   26   27 1
    51   27   28 1
    52   28   29 1
    53   28   53 1
    54   28   54 1
    55   29   55 1
    56   29   56 1
    57   30   31 1
    58   30   32 1
    59   30   33 1
    60   34   57 1
@<TRIPOS>MOLECULE
CHEMBL216272__1
   57    60     0     0     0
SMALL
USER_CHARGES

@<TRIPOS>ATOM
      1 C1         -1.9669    0.3180   -7.9205 C.3       1 <0>        -0.1036
      2 C2         -1.2825   -0.3471   -6.7542 C.2       1 <0>         0.1574
      3 C3         -1.9302   -0.3840   -5.4342 C.ar      1 <0>        -0.0564
      4 C4         -3.2671   -0.0690   -5.2430 C.ar      1 <0>        -0.1021
      5 C5         -3.8018   -0.1217   -3.9623 C.ar      1 <0>         0.1735
      6 C6         -3.0085   -0.4860   -2.8752 C.ar      1 <0>        -0.1052
      7 C7         -1.6786   -0.8043   -3.0517 C.ar      1 <0>        -0.0257
      8 C8         -1.1304   -0.7594   -4.3273 C.ar      1 <0>        -0.1625
      9 C9          0.2760   -1.0945   -4.6097 C.2       1 <0>         0.4864
     10 O1          1.1413   -0.9703   -3.7638 O.2       1 <0>        -0.4332
     11 O2          0.5613   -1.5466   -5.8511 O.3       1 <0>        -0.1617
     12 N1         -0.1186   -0.8978   -6.9044 N.2       1 <0>        -0.2543
     13 N2         -5.1460    0.1934   -3.7615 N.am      1 <0>        -0.6574
     14 C10        -5.8641   -0.4749   -2.8373 C.2       1 <0>         0.4916
     15 O3         -5.3218   -1.2894   -2.1207 O.2       1 <0>        -0.4782
     16 C11        -7.3407   -0.2102   -2.6943 C.3       1 <0>         0.0863
     17 C12        -8.0231   -1.4392   -2.0903 C.3       1 <0>        -0.1381
     18 C13        -9.5345   -1.2081   -2.0357 C.3       1 <0>        -0.0186
     19 C14        -9.9800   -0.4494   -3.2874 C.3       1 <0>        -0.1534
     20 C15       -10.2547   -2.5565   -1.9732 C.3       1 <0>        -0.1349
     21 C16        -9.8751   -0.3995   -0.8104 C.ar      1 <0>        -0.0873
     22 C17        -9.0274   -0.4106    0.2781 C.ar      1 <0>        -0.1045
     23 C18        -9.3303    0.3274    1.4071 C.ar      1 <0>        -0.1399
     24 C19       -10.4925    1.0778    1.4460 C.ar      1 <0>        -0.0761
     25 C20       -11.3414    1.0881    0.3619 C.ar      1 <0>        -0.1733
     26 C21       -11.0414    0.3608   -0.7831 C.ar      1 <0>         0.1205
     27 O4        -11.9942    0.5329   -1.7401 O.3       1 <0>        -0.2932
     28 C22       -13.1953    1.0325   -1.1279 C.3       1 <0>         0.0465
     29 C23       -12.6644    1.7857    0.1112 C.3       1 <0>        -0.1106
     30 C24        -7.5562    0.9953   -1.7770 C.3       1 <0>         0.4713
     31 F1         -6.7985    2.0758   -2.2412 F         1 <0>        -0.1771
     32 F2         -8.9113    1.3429   -1.7744 F         1 <0>        -0.1375
     33 F3         -7.1559    0.6693   -0.4768 F         1 <0>        -0.1557
     34 O5         -7.9023    0.0629   -3.9796 O.3       1 <0>        -0.5162
     35 H1         -1.3360    0.2382   -8.8058 H         1 <0>         0.0946
     36 H2         -2.9218   -0.1726   -8.1093 H         1 <0>         0.0995
     37 H3         -2.1380    1.3695   -7.6899 H         1 <0>         0.0991
     38 H4         -3.8862    0.2141   -6.0815 H         1 <0>         0.1523
     39 H5         -3.4396   -0.5188   -1.8855 H         1 <0>         0.1557
     40 H6         -1.0687   -1.0855   -2.2060 H         1 <0>         0.1523
     41 H7         -5.5638    0.8934   -4.2871 H         1 <0>         0.4252
     42 H8         -7.8111   -2.3124   -2.7072 H         1 <0>         0.1003
     43 H9         -7.6444   -1.6061   -1.0819 H         1 <0>         0.1080
     44 H10        -9.6052   -0.9602   -4.1744 H         1 <0>         0.0540
     45 H11       -11.0688   -0.4130   -3.3220 H         1 <0>         0.0637
     46 H12        -9.5833    0.5654   -3.2577 H         1 <0>         0.0929
     47 H13       -10.0044   -3.0592   -1.0390 H         1 <0>         0.0576
     48 H14       -11.3317   -2.3958   -2.0222 H         1 <0>         0.0632
     49 H15        -9.9411   -3.1752   -2.8141 H         1 <0>         0.0604
     50 H16        -8.1224   -0.9994    0.2481 H         1 <0>         0.1370
     51 H17        -8.6626    0.3182    2.2558 H         1 <0>         0.1269
     52 H18       -10.7334    1.6554    2.3262 H         1 <0>         0.1224
     53 H19       -13.7194    1.7099   -1.8021 H         1 <0>         0.1058
     54 H20       -13.8437    0.2112   -0.8229 H         1 <0>         0.0745
     55 H21       -13.3337    1.6694    0.9637 H         1 <0>         0.0905
     56 H22       -12.5112    2.8396   -0.1209 H         1 <0>         0.0884
     57 H23        -7.8022   -0.6598   -4.6142 H         1 <0>         0.3986
@<TRIPOS>BOND
     1    1    2 1
     2    1   35 1
     3    1   36 1
     4    1   37 1
     5    2   12 2
     6    2    3 1
     7    3    8 ar
     8    3    4 ar
     9    4    5 ar
    10    4   38 1
    11    5    6 ar
    12    5   13 1
    13    6    7 ar
    14    6   39 1
    15    7    8 ar
    16    7   40 1
    17    8    9 1
    18    9   10 2
    19    9   11 1
    20   11   12 1
    21   13   14 am
    22   13   41 1
    23   14   15 2
    24   14   16 1
    25   16   17 1
    26   16   30 1
    27   16   34 1
    28   17   18 1
    29   17   42 1
    30   17   43 1
    31   18   19 1
    32   18   20 1
    33   18   21 1
    34   19   44 1
    35   19   45 1
    36   19   46 1
    37   20   47 1
    38   20   48 1
    39   20   49 1
    40   21   26 ar
    41   21   22 ar
    42   22   23 ar
    43   22   50 1
    44   23   24 ar
    45   23   51 1
    46   24   25 ar
    47   24   52 1
    48   25   29 1
    49   25   26 ar
    50   26   27 1
    51   27   28 1
    52   28   29 1
    53   28   53 1
    54   28   54 1
    55   29   55 1
    56   29   56 1
    57   30   31 1
    58   30   32 1
    59   30   33 1
    60   34   57 1
@<TRIPOS>MOLECULE
CHEMBL525442
   74    78     0     0     0
SMALL
USER_CHARGES

@<TRIPOS>ATOM
      1 C1         -0.5785    1.4430    0.8776 C.3       1 <0>        -0.1594
      2 C2         -0.5799   -0.0689    0.6431 C.3       1 <0>        -0.0892
      3 H1         -1.6033   -0.4440    0.6290 H         1 <0>         0.0924
      4 C3          0.1279   -0.4008   -0.6989 C.3       1 <0>        -0.1123
      5 C4          0.8667   -1.7060   -0.3833 C.3       1 <0>        -0.0833
      6 H2          0.1668   -2.5413   -0.3579 H         1 <0>         0.0875
      7 C5          2.0445   -2.0325   -1.2832 C.3       1 <0>        -0.0993
      8 H3          2.7701   -1.2197   -1.2489 H         1 <0>         0.1154
      9 C6          1.5602   -2.2317   -2.7208 C.3       1 <0>        -0.1155
     10 C7          2.7564   -2.5218   -3.6328 C.3       1 <0>        -0.0949
     11 C8          3.5060   -3.7119   -3.0639 C.2       1 <0>        -0.0293
     12 C9          3.7839   -4.7360   -3.8586 C.2       1 <0>        -0.2208
     13 C10         4.4913   -5.9162   -3.3381 C.2       1 <0>         0.4077
     14 O1          4.7820   -6.8416   -4.0727 O.2       1 <0>        -0.4563
     15 C11         4.8392   -5.9524   -1.9075 C.2       1 <0>        -0.2091
     16 C12         4.5577   -4.9157   -1.1340 C.2       1 <0>        -0.0689
     17 C13         3.9013   -3.6683   -1.6174 C.3       1 <0>        -0.0312
     18 C14         2.6866   -3.3239   -0.7516 C.3       1 <0>         0.1610
     19 C15         3.1063   -3.1853    0.7086 C.3       1 <0>         0.0907
     20 H4          3.4678   -4.1489    1.0676 H         1 <0>         0.0735
     21 C16         1.9372   -2.7267    1.5945 C.3       1 <0>        -0.1325
     22 C17         1.4195   -1.4187    1.0385 C.3       1 <0>        -0.0406
     23 C18         0.2319   -0.7801    1.7542 C.3       1 <0>         0.1198
     24 C19         0.7123    0.2218    2.7723 C.2       1 <0>         0.3530
     25 O2          1.3636    1.1757    2.4200 O.2       1 <0>        -0.3992
     26 C20         0.3801    0.0332    4.2301 C.3       1 <0>         0.0211
     27 O3          0.8943    1.1341    4.9821 O.3       1 <0>        -0.5498
     28 O4         -0.5659   -1.7842    2.3845 O.3       1 <0>        -0.3464
     29 C21        -1.7614   -1.3997    2.8698 C.2       1 <0>         0.6392
     30 O5         -2.1258   -0.2473    2.7445 O.2       1 <0>        -0.5564
     31 N1         -2.5540   -2.2930    3.4946 N.am      1 <0>        -0.7014
     32 C22        -3.8549   -1.8745    4.0226 C.3       1 <0>         0.1554
     33 C23        -3.6942   -1.3388    5.4603 C.3       1 <0>        -0.1380
     34 C24        -4.9679   -1.8286    6.1928 C.3       1 <0>        -0.1250
     35 C25        -5.1852   -3.2403    5.5938 C.3       1 <0>        -0.1252
     36 C26        -4.8029   -3.0836    4.1075 C.3       1 <0>        -0.1326
     37 C27         2.5768   -0.4216    0.9534 C.3       1 <0>        -0.1676
     38 O6          4.1629   -2.2276    0.8010 O.3       1 <0>        -0.5397
     39 F1          1.7638   -4.3708   -0.8493 F         1 <0>        -0.1924
     40 C28         4.8933   -2.5174   -1.4383 C.3       1 <0>        -0.1364
     41 H5          0.4479    1.8098    0.8775 H         1 <0>         0.0812
     42 H6         -1.1401    1.9345    0.0832 H         1 <0>         0.0576
     43 H7         -1.0424    1.6619    1.8394 H         1 <0>         0.0644
     44 H8         -0.6029   -0.5536   -1.4930 H         1 <0>         0.0762
     45 H9          0.8327    0.3859   -0.9681 H         1 <0>         0.0803
     46 H10         0.8651   -3.0705   -2.7564 H         1 <0>         0.0742
     47 H11         1.0549   -1.3281   -3.0618 H         1 <0>         0.0824
     48 H12         2.4050   -2.7545   -4.6380 H         1 <0>         0.0848
     49 H13         3.4144   -1.6533   -3.6642 H         1 <0>         0.0887
     50 H14         3.4882   -4.7037   -4.8969 H         1 <0>         0.1389
     51 H15         5.3227   -6.8233   -1.4902 H         1 <0>         0.1406
     52 H16         4.8198   -4.9778   -0.0881 H         1 <0>         0.1273
     53 H17         1.1392   -3.4688    1.5696 H         1 <0>         0.0883
     54 H18         2.2812   -2.5844    2.6189 H         1 <0>         0.0766
     55 H19        -0.7019   -0.0168    4.3526 H         1 <0>         0.0849
     56 H20         0.8294   -0.8931    4.5883 H         1 <0>         0.0749
     57 H21         0.7168    1.0792    5.9311 H         1 <0>         0.3845
     58 H22        -2.2632   -3.2129    3.5946 H         1 <0>         0.4068
     59 H23        -4.2873   -1.1052    3.3828 H         1 <0>         0.0977
     60 H24        -2.8017   -1.7571    5.9257 H         1 <0>         0.0707
     61 H25        -3.6499   -0.2497    5.4588 H         1 <0>         0.0737
     62 H26        -4.7969   -1.8872    7.2677 H         1 <0>         0.0713
     63 H27        -5.8151   -1.1799    5.9702 H         1 <0>         0.0718
     64 H28        -4.5335   -3.9658    6.0808 H         1 <0>         0.0685
     65 H29        -6.2290   -3.5390    5.6898 H         1 <0>         0.0714
     66 H30        -5.6958   -2.9007    3.5097 H         1 <0>         0.0798
     67 H31        -4.2951   -3.9817    3.7559 H         1 <0>         0.0744
     68 H32         2.1897    0.5629    0.6906 H         1 <0>         0.0728
     69 H33         3.0817   -0.3678    1.9180 H         1 <0>         0.0534
     70 H34         3.2836   -0.7495    0.1912 H         1 <0>         0.1092
     71 H35         4.4854   -2.0834    1.7012 H         1 <0>         0.3784
     72 H36         4.3509   -1.5726   -1.4011 H         1 <0>         0.0783
     73 H37         5.4464   -2.6556   -0.5093 H         1 <0>         0.0975
     74 H38         5.5894   -2.5039   -2.2770 H         1 <0>         0.0544
@<TRIPOS>BOND
     1    1    2 1
     2    1   41 1
     3    1   42 1
     4    1   43 1
     5    2    3 1
     6    2   23 1
     7    2    4 1
     8    4    5 1
     9    4   44 1
    10    4   45 1
    11    5    6 1
    12    5   22 1
    13    5    7 1
    14    7    8 1
    15    7   18 1
    16    7    9 1
    17    9   10 1
    18    9   46 1
    19    9   47 1
    20   10   11 1
    21   10   48 1
    22   10   49 1
    23   11   17 1
    24   11   12 2
    25   12   13 1
    26   12   50 1
    27   13   14 2
    28   13   15 1
    29   15   16 2
    30   15   51 1
    31   16   17 1
    32   16   52 1
    33   17   18 1
    34   17   40 1
    35   18   19 1
    36   18   39 1
    37   19   20 1
    38   19   21 1
    39   19   38 1
    40   21   22 1
    41   21   53 1
    42   21   54 1
    43   22   23 1
    44   22   37 1
    45   23   24 1
    46   23   28 1
    47   24   25 2
    48   24   26 1
    49   26   27 1
    50   26   55 1
    51   26   56 1
    52   27   57 1
    53   28   29 1
    54   29   30 2
    55   29   31 am
    56   31   32 1
    57   31   58 1
    58   32   36 1
    59   32   33 1
    60   32   59 1
    61   33   34 1
    62   33   60 1
    63   33   61 1
    64   34   35 1
    65   34   62 1
    66   34   63 1
    67   35   36 1
    68   35   64 1
    69   35   65 1
    70   36   66 1
    71   36   67 1
    72   37   68 1
    73   37   69 1
    74   37   70 1
    75   38   71 1
    76   40   72 1
    77   40   73 1
    78   40   74 1
@<TRIPOS>MOLECULE
CHEMBL337112
   57    61     0     0     0
SMALL
USER_CHARGES

@<TRIPOS>ATOM
      1 C1          0.0383    1.2724   -0.0200 C.3       1 <0>        -0.1214
      2 C2         -0.0100   -0.2317    0.0680 C.2       1 <0>        -0.0567
      3 C3         -0.1168   -0.9006   -1.0812 C.2       1 <0>        -0.1797
      4 C4         -0.1455   -2.4026   -1.1060 C.3       1 <0>         0.2134
      5 N1          0.6316   -2.9201    0.0258 N.pl3     1 <0>        -0.7345
      6 C5          0.4972   -2.3090    1.2717 C.ar      1 <0>         0.2225
      7 C6          0.0730   -0.9612    1.3410 C.ar      1 <0>        -0.0973
      8 C7         -0.3330   -0.4742    2.5763 C.ar      1 <0>        -0.0553
      9 C8          0.1089   -1.1314    3.7339 C.ar      1 <0>        -0.0769
     10 C9          0.6903   -2.3903    3.6511 C.ar      1 <0>        -0.0446
     11 C10         0.8640   -2.9875    2.4183 C.ar      1 <0>        -0.1881
     12 C11        -0.0060   -0.4341    5.0366 C.ar      1 <0>        -0.1403
     13 C12        -0.9501    0.5995    5.1283 C.ar      1 <0>         0.1727
     14 C13        -1.1106    1.2892    6.3178 C.ar      1 <0>        -0.1832
     15 C14        -0.3512    0.9521    7.4227 C.ar      1 <0>        -0.0465
     16 C15         0.5772   -0.0667    7.3419 C.ar      1 <0>        -0.2405
     17 C16         0.7611   -0.7565    6.1482 C.ar      1 <0>         0.1692
     18 O1          1.7194   -1.7188    6.0990 O.3       1 <0>        -0.3102
     19 C17         2.4495   -1.9693    7.3015 C.3       1 <0>         0.0243
     20 O2         -1.7067    0.8971    4.0547 O.3       1 <0>        -0.3039
     21 C18        -1.2226    0.7266    2.7270 C.3       1 <0>         0.1541
     22 C19        -2.4608    0.5378    1.8483 C.3       1 <0>        -0.0879
     23 C20        -3.3631    1.7863    1.9313 C.3       1 <0>        -0.1193
     24 C21        -4.8032    1.2171    1.8973 C.3       1 <0>        -0.1225
     25 C22        -4.6805   -0.0741    2.7439 C.3       1 <0>        -0.1205
     26 C23        -3.2984   -0.6451    2.3649 C.3       1 <0>        -0.1109
     27 C24         0.4687   -2.9033   -2.4153 C.3       1 <0>        -0.1531
     28 C25        -1.5907   -2.8926   -1.0040 C.3       1 <0>        -0.1577
     29 H1          0.5633    1.6704    0.8484 H         1 <0>         0.0648
     30 H2          0.5638    1.5665   -0.9285 H         1 <0>         0.0701
     31 H3         -0.9771    1.6678   -0.0434 H         1 <0>         0.0743
     32 H4         -0.1836   -0.3468   -2.0050 H         1 <0>         0.1233
     33 H5          1.2298   -3.6775   -0.0913 H         1 <0>         0.4018
     34 H6          0.9819   -2.9297    4.5381 H         1 <0>         0.1352
     35 H7          1.2846   -3.9801    2.3498 H         1 <0>         0.1246
     36 H8         -1.8311    2.0915    6.3822 H         1 <0>         0.1333
     37 H9         -0.4855    1.4866    8.3511 H         1 <0>         0.1326
     38 H10         1.1656   -0.3321    8.2081 H         1 <0>         0.1323
     39 H11         2.9639   -1.0594    7.6106 H         1 <0>         0.0575
     40 H12         1.7607   -2.2818    8.0864 H         1 <0>         0.0576
     41 H13         3.1810   -2.7580    7.1249 H         1 <0>         0.1011
     42 H14        -0.6988    1.6298    2.4290 H         1 <0>         0.0834
     43 H15        -2.1616    0.3605    0.8152 H         1 <0>         0.0960
     44 H16        -3.1870    2.3230    2.8636 H         1 <0>         0.0771
     45 H17        -3.1907    2.4392    1.0757 H         1 <0>         0.0639
     46 H18        -5.5050    1.9141    2.3553 H         1 <0>         0.0658
     47 H19        -5.1017    0.9822    0.8756 H         1 <0>         0.0642
     48 H20        -4.7171    0.1621    3.8074 H         1 <0>         0.0668
     49 H21        -5.4694   -0.7789    2.4813 H         1 <0>         0.0607
     50 H22        -3.4065   -1.3961    1.5823 H         1 <0>         0.0583
     51 H23        -2.8228   -1.0846    3.2417 H         1 <0>         0.0662
     52 H24         1.5001   -2.5585   -2.4881 H         1 <0>         0.0628
     53 H25         0.4477   -3.9930   -2.4331 H         1 <0>         0.0631
     54 H26        -0.1045   -2.5151   -3.2573 H         1 <0>         0.0742
     55 H27        -2.1656   -2.5064   -1.8457 H         1 <0>         0.0658
     56 H28        -1.6070   -3.9824   -1.0224 H         1 <0>         0.0592
     57 H29        -2.0295   -2.5384   -0.0712 H         1 <0>         0.0583
@<TRIPOS>BOND
     1    1    2 1
     2    1   29 1
     3    1   30 1
     4    1   31 1
     5    2    7 1
     6    2    3 2
     7    3    4 1
     8    3   32 1
     9    4    5 1
    10    4   27 1
    11    4   28 1
    12    5    6 1
    13    5   33 1
    14    6   11 ar
    15    6    7 ar
    16    7    8 ar
    17    8   21 1
    18    8    9 ar
    19    9   10 ar
    20    9   12 1
    21   10   11 ar
    22   10   34 1
    23   11   35 1
    24   12   17 ar
    25   12   13 ar
    26   13   14 ar
    27   13   20 1
    28   14   15 ar
    29   14   36 1
    30   15   16 ar
    31   15   37 1
    32   16   17 ar
    33   16   38 1
    34   17   18 1
    35   18   19 1
    36   19   39 1
    37   19   40 1
    38   19   41 1
    39   20   21 1
    40   21   22 1
    41   21   42 1
    42   22   26 1
    43   22   23 1
    44   22   43 1
    45   23   24 1
    46   23   44 1
    47   23   45 1
    48   24   25 1
    49   24   46 1
    50   24   47 1
    51   25   26 1
    52   25   48 1
    53   25   49 1
    54   26   50 1
    55   26   51 1
    56   27   52 1
    57   27   53 1
    58   27   54 1
    59   28   55 1
    60   28   56 1
    61   28   57 1
@<TRIPOS>MOLECULE
CHEMBL337112__1
   57    61     0     0     0
SMALL
USER_CHARGES

@<TRIPOS>ATOM
      1 C1         -0.6426    2.1057    0.0927 C.3       1 <0>        -0.1427
      2 C2         -0.5365    0.6381   -0.2289 C.2       1 <0>        -0.0630
      3 C3         -0.8408    0.2945   -1.4830 C.2       1 <0>        -0.1768
      4 C4         -0.7649   -1.1301   -1.9496 C.3       1 <0>         0.2129
      5 N1          0.2538   -1.8392   -1.1702 N.pl3     1 <0>        -0.7364
      6 C5          0.3338   -1.6166    0.2042 C.ar      1 <0>         0.2218
      7 C6         -0.1176   -0.3866    0.7405 C.ar      1 <0>        -0.0931
      8 C7         -0.1920   -0.2674    2.1200 C.ar      1 <0>        -0.0534
      9 C8          0.3762   -1.2589    2.9397 C.ar      1 <0>        -0.0753
     10 C9          0.9499   -2.3930    2.3799 C.ar      1 <0>        -0.0443
     11 C10         0.9247   -2.5689    1.0121 C.ar      1 <0>        -0.1870
     12 C11         0.3153   -1.0826    4.4103 C.ar      1 <0>        -0.1281
     13 C12        -0.6868   -0.2353    4.9130 C.ar      1 <0>         0.1551
     14 C13        -0.8268   -0.0478    6.2731 C.ar      1 <0>        -0.1755
     15 C14         0.0286   -0.6924    7.1494 C.ar      1 <0>        -0.0518
     16 C15         1.0253   -1.5171    6.6663 C.ar      1 <0>        -0.2328
     17 C16         1.1783   -1.7109    5.2974 C.ar      1 <0>         0.1641
     18 O1          2.1974   -2.4969    4.8612 O.3       1 <0>        -0.3101
     19 C17         3.0269   -3.0966    5.8584 C.3       1 <0>         0.0243
     20 O2         -1.4949    0.4004    4.0244 O.3       1 <0>        -0.3045
     21 C18        -0.8538    0.8837    2.8309 C.3       1 <0>         0.1396
     22 C19         0.1981    1.9147    3.2449 C.3       1 <0>        -0.1141
     23 C20        -0.4868    3.2405    3.6360 C.3       1 <0>        -0.1162
     24 C21         0.4743    4.3346    3.1083 C.3       1 <0>        -0.1244
     25 C22         0.9668    3.7386    1.7662 C.3       1 <0>        -0.1361
     26 C23         1.1223    2.2314    2.0561 C.3       1 <0>        -0.1468
     27 C24        -2.1228   -1.8087   -1.7599 C.3       1 <0>        -0.1579
     28 C25        -0.3859   -1.1628   -3.4324 C.3       1 <0>        -0.1528
     29 H1          0.3000    2.5988   -0.1450 H         1 <0>         0.0846
     30 H2         -1.4440    2.5500   -0.4977 H         1 <0>         0.0666
     31 H3         -0.8605    2.2304    1.1533 H         1 <0>         0.0841
     32 H4         -1.1486    1.0685   -2.1712 H         1 <0>         0.1236
     33 H5          0.8662   -2.4575   -1.6052 H         1 <0>         0.4019
     34 H6          1.3967   -3.1548    2.9991 H         1 <0>         0.1356
     35 H7          1.3667   -3.4516    0.5707 H         1 <0>         0.1254
     36 H8         -1.6015    0.6002    6.6564 H         1 <0>         0.1341
     37 H9         -0.0846   -0.5490    8.2132 H         1 <0>         0.1328
     38 H10         1.6932   -2.0162    7.3534 H         1 <0>         0.1325
     39 H11         3.4950   -2.3165    6.4588 H         1 <0>         0.0573
     40 H12         2.4195   -3.7342    6.5008 H         1 <0>         0.0576
     41 H13         3.7988   -3.6964    5.3763 H         1 <0>         0.1015
     42 H14        -1.6229    1.3351    2.2195 H         1 <0>         0.1288
     43 H15         0.7836    1.5349    4.0822 H         1 <0>         0.0816
     44 H16        -1.4608    3.3235    3.1538 H         1 <0>         0.0695
     45 H17        -0.5888    3.3123    4.7188 H         1 <0>         0.0683
     46 H18        -0.0595    5.2704    2.9426 H         1 <0>         0.0675
     47 H19         1.3079    4.4806    3.7953 H         1 <0>         0.0657
     48 H20         0.2275    3.9020    0.9821 H         1 <0>         0.0764
     49 H21         1.9256    4.1738    1.4846 H         1 <0>         0.0642
     50 H22         2.1564    2.0060    2.3167 H         1 <0>         0.0614
     51 H23         0.8215    1.6505    1.1842 H         1 <0>         0.1003
     52 H24        -2.8782   -1.2785   -2.3400 H         1 <0>         0.0660
     53 H25        -2.0630   -2.8425   -2.1000 H         1 <0>         0.0597
     54 H26        -2.3949   -1.7884   -0.7046 H         1 <0>         0.0575
     55 H27         0.5833   -0.6835   -3.5702 H         1 <0>         0.0629
     56 H28        -0.3309   -2.1975   -3.7706 H         1 <0>         0.0632
     57 H29        -1.1401   -0.6306   -4.0120 H         1 <0>         0.0742
@<TRIPOS>BOND
     1    1    2 1
     2    1   29 1
     3    1   30 1
     4    1   31 1
     5    2    7 1
     6    2    3 2
     7    3    4 1
     8    3   32 1
     9    4    5 1
    10    4   27 1
    11    4   28 1
    12    5    6 1
    13    5   33 1
    14    6   11 ar
    15    6    7 ar
    16    7    8 ar
    17    8   21 1
    18    8    9 ar
    19    9   10 ar
    20    9   12 1
    21   10   11 ar
    22   10   34 1
    23   11   35 1
    24   12   17 ar
    25   12   13 ar
    26   13   14 ar
    27   13   20 1
    28   14   15 ar
    29   14   36 1
    30   15   16 ar
    31   15   37 1
    32   16   17 ar
    33   16   38 1
    34   17   18 1
    35   18   19 1
    36   19   39 1
    37   19   40 1
    38   19   41 1
    39   20   21 1
    40   21   22 1
    41   21   42 1
    42   22   26 1
    43   22   23 1
    44   22   43 1
    45   23   24 1
    46   23   44 1
    47   23   45 1
    48   24   25 1
    49   24   46 1
    50   24   47 1
    51   25   26 1
    52   25   48 1
    53   25   49 1
    54   26   50 1
    55   26   51 1
    56   27   52 1
    57   27   53 1
    58   27   54 1
    59   28   55 1
    60   28   56 1
    61   28   57 1
@<TRIPOS>MOLECULE
CHEMBL273658
   48    51     0     0     0
SMALL
USER_CHARGES

@<TRIPOS>ATOM
      1 C1         -0.0183    1.5001    0.0103 C.3       1 <0>        -0.1213
      2 C2          0.0021   -0.0041    0.0020 C.2       1 <0>        -0.0620
      3 C3         -0.1004   -0.5618   -1.2088 C.2       1 <0>        -0.1765
      4 C4         -0.0555   -2.0511   -1.3908 C.3       1 <0>         0.2106
      5 N1          0.7771   -2.6258   -0.3286 N.pl3     1 <0>        -0.7350
      6 C5          0.6037   -2.1652    0.9775 C.ar      1 <0>         0.2282
      7 C6          0.1301   -0.8467    1.1992 C.ar      1 <0>        -0.0872
      8 C7         -0.2391   -0.4993    2.4910 C.ar      1 <0>        -0.0450
      9 C8          0.0572   -1.3786    3.5525 C.ar      1 <0>        -0.0981
     10 C9          0.7245   -2.5738    3.3225 C.ar      1 <0>        -0.0514
     11 C10         0.9866   -2.9723    2.0304 C.ar      1 <0>        -0.1847
     12 C11        -0.3624   -1.0120    4.9268 C.ar      1 <0>        -0.0703
     13 C12        -0.5929    0.3493    5.1860 C.ar      1 <0>         0.1226
     14 C13        -0.9414    0.7729    6.4521 C.ar      1 <0>        -0.1196
     15 C14        -1.0813   -0.1505    7.4735 C.ar      1 <0>        -0.1042
     16 C15        -0.8825   -1.4986    7.2226 C.ar      1 <0>         0.0925
     17 C16        -0.5349   -1.9329    5.9465 C.ar      1 <0>        -0.0306
     18 Cl1        -0.3566   -3.6366    5.6608 Cl        1 <0>        -0.0436
     19 O1         -1.0245   -2.4064    8.2267 O.3       1 <0>        -0.4834
     20 O2         -0.4827    1.2247    4.1549 O.3       1 <0>        -0.3005
     21 C17        -0.9498    0.7690    2.8742 C.3       1 <0>         0.1398
     22 C18        -2.4561    0.4974    2.9745 C.3       1 <0>        -0.1197
     23 C19        -3.1834    1.7908    3.2376 C.2       1 <0>        -0.1525
     24 C20        -4.1520    2.1711    2.4418 C.2       1 <0>        -0.1863
     25 C21         0.5513   -2.3818   -2.7554 C.3       1 <0>        -0.1526
     26 C22        -1.4680   -2.6287   -1.3080 C.3       1 <0>        -0.1571
     27 H1          0.6256    1.8678    0.8092 H         1 <0>         0.0683
     28 H2          0.3424    1.8736   -0.9481 H         1 <0>         0.0725
     29 H3         -1.0377    1.8487    0.1758 H         1 <0>         0.0722
     30 H4         -0.2148    0.0824   -2.0657 H         1 <0>         0.1246
     31 H5          1.4341   -3.3102   -0.5285 H         1 <0>         0.4035
     32 H6          1.0706   -3.1760    4.1485 H         1 <0>         0.1391
     33 H7          1.4859   -3.9114    1.8397 H         1 <0>         0.1292
     34 H8         -1.0993    1.8245    6.6458 H         1 <0>         0.1446
     35 H9         -1.3407    0.1845    8.4681 H         1 <0>         0.1472
     36 H10        -1.9211   -2.7574    8.3157 H         1 <0>         0.3911
     37 H11        -0.7931    1.5859    2.1927 H         1 <0>         0.1313
     38 H12        -2.8105    0.0651    2.0388 H         1 <0>         0.0849
     39 H13        -2.6462   -0.1989    3.7914 H         1 <0>         0.0803
     40 H14        -2.9060    2.4042    4.0821 H         1 <0>         0.1145
     41 H15        -4.6732    3.0981    2.6303 H         1 <0>         0.1008
     42 H16        -4.4294    1.5577    1.5973 H         1 <0>         0.0960
     43 H17         1.5626   -1.9789   -2.8107 H         1 <0>         0.0637
     44 H18         0.5833   -3.4634   -2.8863 H         1 <0>         0.0641
     45 H19        -0.0598   -1.9386   -3.5417 H         1 <0>         0.0753
     46 H20        -2.0865   -2.1897   -2.0908 H         1 <0>         0.0670
     47 H21        -1.4267   -3.7098   -1.4410 H         1 <0>         0.0607
     48 H22        -1.8980   -2.3987   -0.3332 H         1 <0>         0.0570
@<TRIPOS>BOND
     1    1    2 1
     2    1   27 1
     3    1   28 1
     4    1   29 1
     5    2    7 1
     6    2    3 2
     7    3    4 1
     8    3   30 1
     9    4    5 1
    10    4   25 1
    11    4   26 1
    12    5    6 1
    13    5   31 1
    14    6   11 ar
    15    6    7 ar
    16    7    8 ar
    17    8   21 1
    18    8    9 ar
    19    9   10 ar
    20    9   12 1
    21   10   11 ar
    22   10   32 1
    23   11   33 1
    24   12   17 ar
    25   12   13 ar
    26   13   14 ar
    27   13   20 1
    28   14   15 ar
    29   14   34 1
    30   15   16 ar
    31   15   35 1
    32   16   17 ar
    33   16   19 1
    34   17   18 1
    35   19   36 1
    36   20   21 1
    37   21   22 1
    38   21   37 1
    39   22   23 1
    40   22   38 1
    41   22   39 1
    42   23   24 2
    43   23   40 1
    44   24   41 1
    45   24   42 1
    46   25   43 1
    47   25   44 1
    48   25   45 1
    49   26   46 1
    50   26   47 1
    51   26   48 1
@<TRIPOS>MOLECULE
CHEMBL273658__1
   48    51     0     0     0
SMALL
USER_CHARGES

@<TRIPOS>ATOM
      1 C1         -0.2181    1.7055    0.0103 C.3       1 <0>        -0.1251
      2 C2         -0.1625    0.2048   -0.0989 C.2       1 <0>        -0.0630
      3 C3         -0.3270   -0.2942   -1.3252 C.2       1 <0>        -0.1739
      4 C4         -0.2771   -1.7723   -1.5860 C.3       1 <0>         0.2112
      5 N1          0.5936   -2.4060   -0.5913 N.pl3     1 <0>        -0.7355
      6 C5          0.5020   -2.0036    0.7420 C.ar      1 <0>         0.2289
      7 C6          0.0646   -0.6919    1.0451 C.ar      1 <0>        -0.0897
      8 C7         -0.1754   -0.3779    2.3739 C.ar      1 <0>        -0.0495
      9 C8          0.2193   -1.2719    3.3857 C.ar      1 <0>        -0.0954
     10 C9          0.7721   -2.5039    3.0635 C.ar      1 <0>        -0.0520
     11 C10         0.9124   -2.8660    1.7401 C.ar      1 <0>        -0.1845
     12 C11        -0.0009   -0.8820    4.7994 C.ar      1 <0>        -0.0682
     13 C12        -1.0134    0.0618    5.0490 C.ar      1 <0>         0.1210
     14 C13        -1.3122    0.4432    6.3404 C.ar      1 <0>        -0.1160
     15 C14        -0.6042   -0.0985    7.3988 C.ar      1 <0>        -0.1064
     16 C15         0.4110   -1.0109    7.1614 C.ar      1 <0>         0.0941
     17 C16         0.7239   -1.3951    5.8611 C.ar      1 <0>        -0.0320
     18 Cl1         2.0464   -2.4911    5.6043 Cl        1 <0>        -0.0432
     19 O1          1.1094   -1.5372    8.2038 O.3       1 <0>        -0.4847
     20 O2         -1.6665    0.5961    3.9827 O.3       1 <0>        -0.2984
     21 C17        -0.8486    0.8878    2.8348 C.3       1 <0>         0.1411
     22 C18         0.2028    1.9175    3.2507 C.3       1 <0>        -0.1230
     23 C19        -0.4751    3.2221    3.5817 C.2       1 <0>        -0.1530
     24 C20        -0.2780    3.7852    4.7480 C.2       1 <0>        -0.1815
     25 C21        -1.6844   -2.3626   -1.4889 C.3       1 <0>        -0.1580
     26 C22         0.2839   -2.0254   -2.9871 C.3       1 <0>        -0.1530
     27 H1          0.4902    2.0412    0.7677 H         1 <0>         0.0711
     28 H2          0.0402    2.1496   -0.9510 H         1 <0>         0.0715
     29 H3         -1.2251    2.0121    0.2933 H         1 <0>         0.0721
     30 H4         -0.4996    0.3888   -2.1438 H         1 <0>         0.1251
     31 H5          1.2248   -3.0956   -0.8550 H         1 <0>         0.4034
     32 H6          1.0660   -3.1984    3.8343 H         1 <0>         0.1382
     33 H7          1.3425   -3.8241    1.4831 H         1 <0>         0.1286
     34 H8         -2.0956    1.1625    6.5286 H         1 <0>         0.1442
     35 H9         -0.8444    0.1912    8.4104 H         1 <0>         0.1464
     36 H10         0.7292   -2.3515    8.5608 H         1 <0>         0.3923
     37 H11        -1.5044    1.2856    2.0721 H         1 <0>         0.1297
     38 H12         0.7401    1.5547    4.1270 H         1 <0>         0.0781
     39 H13         0.9054    2.0707    2.4315 H         1 <0>         0.0935
     40 H14        -1.1234    3.6928    2.8574 H         1 <0>         0.1126
     41 H15        -0.7638    4.7202    4.9852 H         1 <0>         0.1004
     42 H16         0.3703    3.3146    5.4723 H         1 <0>         0.0948
     43 H17        -2.3294   -1.8876   -2.2281 H         1 <0>         0.0671
     44 H18        -1.6424   -3.4351   -1.6789 H         1 <0>         0.0606
     45 H19        -2.0844   -2.1859   -0.4905 H         1 <0>         0.0575
     46 H20         1.2894   -1.6105   -3.0563 H         1 <0>         0.0635
     47 H21         0.3198   -3.0984   -3.1757 H         1 <0>         0.0639
     48 H22        -0.3580   -1.5477   -3.7273 H         1 <0>         0.0751
@<TRIPOS>BOND
     1    1    2 1
     2    1   27 1
     3    1   28 1
     4    1   29 1
     5    2    7 1
     6    2    3 2
     7    3    4 1
     8    3   30 1
     9    4    5 1
    10    4   25 1
    11    4   26 1
    12    5    6 1
    13    5   31 1
    14    6   11 ar
    15    6    7 ar
    16    7    8 ar
    17    8   21 1
    18    8    9 ar
    19    9   10 ar
    20    9   12 1
    21   10   11 ar
    22   10   32 1
    23   11   33 1
    24   12   17 ar
    25   12   13 ar
    26   13   14 ar
    27   13   20 1
    28   14   15 ar
    29   14   34 1
    30   15   16 ar
    31   15   35 1
    32   16   17 ar
    33   16   19 1
    34   17   18 1
    35   19   36 1
    36   20   21 1
    37   21   22 1
    38   21   37 1
    39   22   23 1
    40   22   38 1
    41   22   39 1
    42   23   24 2
    43   23   40 1
    44   24   41 1
    45   24   42 1
    46   25   43 1
    47   25   44 1
    48   25   45 1
    49   26   46 1
    50   26   47 1
    51   26   48 1
@<TRIPOS>MOLECULE
CHEMBL1094208
   42    45     0     0     0
SMALL
USER_CHARGES

@<TRIPOS>ATOM
      1 C1          0.4263    0.2565   -0.0743 C.ar      1 <0>        -0.0911
      2 C2          1.6644    0.7304    0.3188 C.ar      1 <0>        -0.0946
      3 C3          2.3225    1.6695   -0.4525 C.ar      1 <0>        -0.1074
      4 C4          1.7428    2.1357   -1.6189 C.ar      1 <0>        -0.0111
      5 C5          0.5034    1.6610   -2.0128 C.ar      1 <0>        -0.0285
      6 C6         -0.1542    0.7213   -1.2392 C.ar      1 <0>        -0.0848
      7 Cl1        -0.2257    2.2454   -3.4758 Cl        1 <0>        -0.0361
      8 Cl2         2.5688    3.3158   -2.5878 Cl        1 <0>        -0.0322
      9 C7          3.6714    2.1861   -0.0227 C.3       1 <0>         0.1956
     10 C8          4.6770    1.9360   -1.1169 C.ar      1 <0>        -0.1737
     11 C9          4.7485    0.6827   -1.7126 C.ar      1 <0>        -0.0408
     12 C10         5.6517    0.4306   -2.7062 C.ar      1 <0>        -0.1327
     13 C11         6.5133    1.4382   -3.1316 C.ar      1 <0>         0.1439
     14 C12         6.4422    2.7094   -2.5295 C.ar      1 <0>        -0.1745
     15 C13         5.5051    2.9444   -1.5172 C.ar      1 <0>         0.0050
     16 C14         7.4565    3.5303   -3.1832 C.2       1 <0>         0.0948
     17 N1          8.0515    2.7923   -4.0772 N.2       1 <0>        -0.2429
     18 N2          7.5048    1.5048   -4.0786 N.pl3     1 <0>        -0.3543
     19 C15         7.9051    0.4524   -4.9122 C.ar      1 <0>         0.1537
     20 C16         7.8888   -0.8534   -4.4400 C.ar      1 <0>        -0.1088
     21 C17         8.2838   -1.8894   -5.2633 C.ar      1 <0>        -0.1273
     22 C18         8.6965   -1.6267   -6.5589 C.ar      1 <0>         0.0957
     23 C19         8.7139   -0.3252   -7.0316 C.ar      1 <0>        -0.1298
     24 C20         8.3133    0.7130   -6.2137 C.ar      1 <0>        -0.0866
     25 F1          9.0830   -2.6415   -7.3625 F         1 <0>        -0.1332
     26 C21         4.1127    1.4619    1.2508 C.3       1 <0>         0.4765
     27 F2          4.1304    0.0821    1.0203 F         1 <0>        -0.1667
     28 F3          5.3947    1.8911    1.6108 F         1 <0>        -0.1619
     29 F4          3.2166    1.7504    2.2857 F         1 <0>        -0.1663
     30 O1          3.5847    3.5893    0.2331 O.3       1 <0>        -0.5214
     31 H1         -0.0853   -0.4804    0.5270 H         1 <0>         0.1490
     32 H2          2.1172    0.3666    1.2293 H         1 <0>         0.1476
     33 H3         -1.1212    0.3505   -1.5459 H         1 <0>         0.1502
     34 H4          4.0822   -0.1020   -1.3858 H         1 <0>         0.1362
     35 H5          5.6975   -0.5481   -3.1604 H         1 <0>         0.1354
     36 H6          5.4401    3.9172   -1.0526 H         1 <0>         0.1426
     37 H7          7.6748    4.5653   -2.9651 H         1 <0>         0.2068
     38 H8          7.5677   -1.0586   -3.4294 H         1 <0>         0.1415
     39 H9          8.2713   -2.9051   -4.8964 H         1 <0>         0.1475
     40 H10         9.0367   -0.1223   -8.0421 H         1 <0>         0.1468
     41 H11         8.3225    1.7274   -6.5843 H         1 <0>         0.1437
     42 H12         3.3095    4.1123   -0.5323 H         1 <0>         0.3946
@<TRIPOS>BOND
     1    1    6 ar
     2    1    2 ar
     3    1   31 1
     4    2    3 ar
     5    2   32 1
     6    3    4 ar
     7    3    9 1
     8    4    5 ar
     9    4    8 1
    10    5    6 ar
    11    5    7 1
    12    6   33 1
    13    9   10 1
    14    9   26 1
    15    9   30 1
    16   10   15 ar
    17   10   11 ar
    18   11   12 ar
    19   11   34 1
    20   12   13 ar
    21   12   35 1
    22   13   18 1
    23   13   14 ar
    24   14   15 ar
    25   14   16 1
    26   15   36 1
    27   16   17 2
    28   16   37 1
    29   17   18 1
    30   18   19 1
    31   19   24 ar
    32   19   20 ar
    33   20   21 ar
    34   20   38 1
    35   21   22 ar
    36   21   39 1
    37   22   23 ar
    38   22   25 1
    39   23   24 ar
    40   23   40 1
    41   24   41 1
    42   26   27 1
    43   26   28 1
    44   26   29 1
    45   30   42 1
@<TRIPOS>MOLECULE
CHEMBL1094208__1
   42    45     0     0     0
SMALL
USER_CHARGES

@<TRIPOS>ATOM
      1 C1          0.4166    0.3749   -0.6408 C.ar      1 <0>        -0.0910
      2 C2          1.7106    0.8365   -0.7960 C.ar      1 <0>        -0.0948
      3 C3          2.2605    1.6842    0.1469 C.ar      1 <0>        -0.1071
      4 C4          1.5160    2.0718    1.2466 C.ar      1 <0>        -0.0114
      5 C5          0.2201    1.6099    1.4018 C.ar      1 <0>        -0.0285
      6 C6         -0.3286    0.7610    0.4572 C.ar      1 <0>        -0.0848
      7 Cl1        -0.7153    2.0948    2.7815 Cl        1 <0>        -0.0362
      8 Cl2         2.2064    3.1361    2.4316 Cl        1 <0>        -0.0319
      9 C7          3.6714    2.1861   -0.0227 C.3       1 <0>         0.1956
     10 C8          4.4896    1.8016    1.1831 C.ar      1 <0>        -0.1742
     11 C9          4.4127    0.5072    1.6827 C.ar      1 <0>        -0.0400
     12 C10         5.1440    0.1340    2.7747 C.ar      1 <0>        -0.1329
     13 C11         5.9785    1.0574    3.3985 C.ar      1 <0>         0.1440
     14 C12         6.0584    2.3698    2.8935 C.ar      1 <0>        -0.1747
     15 C13         5.3033    2.7265    1.7706 C.ar      1 <0>         0.0052
     16 C14         7.0008    3.0824    3.7502 C.2       1 <0>         0.0949
     17 N1          7.4197    2.2502    4.6611 N.2       1 <0>        -0.2430
     18 N2          6.8190    0.9997    4.4823 N.pl3     1 <0>        -0.3543
     19 C15         7.0393   -0.1298    5.2812 C.ar      1 <0>         0.1537
     20 C16         6.0014   -1.0180    5.5309 C.ar      1 <0>        -0.1088
     21 C17         6.2207   -2.1308    6.3187 C.ar      1 <0>        -0.1274
     22 C18         7.4744   -2.3611    6.8600 C.ar      1 <0>         0.0957
     23 C19         8.5107   -1.4764    6.6125 C.ar      1 <0>        -0.1296
     24 C20         8.2973   -0.3658    5.8198 C.ar      1 <0>        -0.0866
     25 F1          7.6867   -3.4501    7.6308 F         1 <0>        -0.1332
     26 C21         4.2872    1.5625   -1.2768 C.3       1 <0>         0.4762
     27 F2          3.5569    1.9601   -2.4019 F         1 <0>        -0.1665
     28 F3          5.6132    1.9893   -1.4068 F         1 <0>        -0.1620
     29 F4          4.2546    0.1681   -1.1685 F         1 <0>        -0.1665
     30 O1          3.6582    3.6088   -0.1554 O.3       1 <0>        -0.5217
     31 H1         -0.0136   -0.2842   -1.3803 H         1 <0>         0.1490
     32 H2          2.2922    0.5342   -1.6544 H         1 <0>         0.1476
     33 H3         -1.3395    0.4003    0.5777 H         1 <0>         0.1502
     34 H4          3.7666   -0.2125    1.2021 H         1 <0>         0.1358
     35 H5          5.0745   -0.8750    3.1534 H         1 <0>         0.1354
     36 H6          5.3612    3.7291    1.3735 H         1 <0>         0.1430
     37 H7          7.2983    4.1156    3.6473 H         1 <0>         0.2068
     38 H8          5.0233   -0.8383    5.1096 H         1 <0>         0.1411
     39 H9          5.4137   -2.8218    6.5132 H         1 <0>         0.1473
     40 H10         9.4875   -1.6574    7.0361 H         1 <0>         0.1469
     41 H11         9.1070    0.3213    5.6231 H         1 <0>         0.1439
     42 H12         3.2803    4.0713    0.6051 H         1 <0>         0.3946
@<TRIPOS>BOND
     1    1    6 ar
     2    1    2 ar
     3    1   31 1
     4    2    3 ar
     5    2   32 1
     6    3    4 ar
     7    3    9 1
     8    4    5 ar
     9    4    8 1
    10    5    6 ar
    11    5    7 1
    12    6   33 1
    13    9   10 1
    14    9   26 1
    15    9   30 1
    16   10   15 ar
    17   10   11 ar
    18   11   12 ar
    19   11   34 1
    20   12   13 ar
    21   12   35 1
    22   13   18 1
    23   13   14 ar
    24   14   15 ar
    25   14   16 1
    26   15   36 1
    27   16   17 2
    28   16   37 1
    29   17   18 1
    30   18   19 1
    31   19   24 ar
    32   19   20 ar
    33   20   21 ar
    34   20   38 1
    35   21   22 ar
    36   21   39 1
    37   22   23 ar
    38   22   25 1
    39   23   24 ar
    40   23   40 1
    41   24   41 1
    42   26   27 1
    43   26   28 1
    44   26   29 1
    45   30   42 1
@<TRIPOS>MOLECULE
CHEMBL1094209
   41    44     0     0     0
SMALL
USER_CHARGES

@<TRIPOS>ATOM
      1 C1          0.7267    1.3337   -1.3866 C.ar      1 <0>        -0.0858
      2 C2          1.9312    1.9409   -1.6827 C.ar      1 <0>        -0.1297
      3 C3          3.0769    1.1760   -1.8246 C.ar      1 <0>         0.0971
      4 C4          3.0173   -0.1990   -1.6704 C.ar      1 <0>        -0.1273
      5 C5          1.8148   -0.8101   -1.3747 C.ar      1 <0>        -0.1084
      6 C6          0.6649   -0.0449   -1.2311 C.ar      1 <0>         0.1512
      7 N1         -0.5558   -0.6628   -0.9301 N.pl3     1 <0>        -0.3533
      8 C7         -0.9547   -1.8983   -1.3761 C.ar      1 <0>         0.1414
      9 C8         -0.3686   -2.8667   -2.1866 C.ar      1 <0>        -0.1312
     10 C9         -1.0387   -4.0271   -2.4529 C.ar      1 <0>        -0.0415
     11 C10        -2.3031   -4.2563   -1.9239 C.ar      1 <0>        -0.1712
     12 C11        -2.9025   -3.3249   -1.1265 C.ar      1 <0>        -0.0172
     13 C12        -2.2361   -2.1285   -0.8389 C.ar      1 <0>        -0.1720
     14 C13        -2.5671   -0.9481   -0.0469 C.2       1 <0>         0.0946
     15 N2         -1.5617   -0.1227   -0.1221 N.2       1 <0>        -0.2406
     16 C14        -3.0194   -5.5454   -2.2341 C.3       1 <0>         0.1965
     17 C15        -4.2707   -5.2483   -3.0197 C.ar      1 <0>        -0.0696
     18 C16        -5.3298   -4.5678   -2.4372 C.ar      1 <0>        -0.1637
     19 C17        -6.4613   -4.3130   -3.1877 C.ar      1 <0>         0.1318
     20 N3         -6.5418   -4.7089   -4.4433 N.ar      1 <0>        -0.4671
     21 C18        -5.5546   -5.3584   -5.0304 C.ar      1 <0>         0.1821
     22 C19        -4.3880   -5.6435   -4.3426 C.ar      1 <0>        -0.1309
     23 Cl1        -5.7182   -5.8544   -6.6860 Cl        1 <0>        -0.0171
     24 C20        -3.3925   -6.2487   -0.9275 C.3       1 <0>         0.4785
     25 F1         -4.2302   -5.4193   -0.1742 F         1 <0>        -0.1689
     26 F2         -4.0575   -7.4454   -1.2155 F         1 <0>        -0.1649
     27 F3         -2.2309   -6.5245   -0.1983 F         1 <0>        -0.1614
     28 O1         -2.1637   -6.3926   -3.0036 O.3       1 <0>        -0.5190
     29 F4          4.2542    1.7719   -2.1144 F         1 <0>        -0.1326
     30 H1         -0.1657    1.9310   -1.2716 H         1 <0>         0.1441
     31 H2          1.9796    3.0129   -1.8041 H         1 <0>         0.1474
     32 H3          3.9119   -0.7937   -1.7818 H         1 <0>         0.1481
     33 H4          1.7687   -1.8825   -1.2548 H         1 <0>         0.1416
     34 H5          0.6134   -2.7007   -2.6043 H         1 <0>         0.1380
     35 H6         -0.5803   -4.7753   -3.0825 H         1 <0>         0.1427
     36 H7         -3.8857   -3.5102   -0.7198 H         1 <0>         0.1450
     37 H8         -3.4810   -0.7888    0.5061 H         1 <0>         0.2082
     38 H9         -5.2706   -4.2415   -1.4094 H         1 <0>         0.1567
     39 H10        -7.2899   -3.7836   -2.7409 H         1 <0>         0.1755
     40 H11        -3.5812   -6.1714   -4.8294 H         1 <0>         0.1534
     41 H12        -1.8868   -6.0099   -3.8474 H         1 <0>         0.3993
@<TRIPOS>BOND
     1    1    6 ar
     2    1    2 ar
     3    1   30 1
     4    2    3 ar
     5    2   31 1
     6    3    4 ar
     7    3   29 1
     8    4    5 ar
     9    4   32 1
    10    5    6 ar
    11    5   33 1
    12    6    7 1
    13    7   15 1
    14    7    8 1
    15    8   13 ar
    16    8    9 ar
    17    9   10 ar
    18    9   34 1
    19   10   11 ar
    20   10   35 1
    21   11   12 ar
    22   11   16 1
    23   12   13 ar
    24   12   36 1
    25   13   14 1
    26   14   15 2
    27   14   37 1
    28   16   17 1
    29   16   24 1
    30   16   28 1
    31   17   22 ar
    32   17   18 ar
    33   18   19 ar
    34   18   38 1
    35   19   20 ar
    36   19   39 1
    37   20   21 ar
    38   21   22 ar
    39   21   23 1
    40   22   40 1
    41   24   25 1
    42   24   26 1
    43   24   27 1
    44   28   41 1
@<TRIPOS>MOLECULE
CHEMBL1094209__1
   41    44     0     0     0
SMALL
USER_CHARGES

@<TRIPOS>ATOM
      1 C1          0.1139    1.3291    0.0011 C.ar      1 <0>        -0.0856
      2 C2          1.3123    2.0153   -0.0141 C.ar      1 <0>        -0.1294
      3 C3          2.5094    1.3196   -0.0400 C.ar      1 <0>         0.0969
      4 C4          2.5076   -0.0653   -0.0512 C.ar      1 <0>        -0.1275
      5 C5          1.3114   -0.7552   -0.0365 C.ar      1 <0>        -0.1086
      6 C6          0.1099   -0.0595   -0.0096 C.ar      1 <0>         0.1518
      7 N1         -1.1047   -0.7575    0.0063 N.pl3     1 <0>        -0.3536
      8 C7         -1.3489   -1.9462   -0.6355 C.ar      1 <0>         0.1414
      9 C8         -0.5790   -2.7868   -1.4348 C.ar      1 <0>        -0.1312
     10 C9         -1.1246   -3.9333   -1.9391 C.ar      1 <0>        -0.0414
     11 C10        -2.4433   -4.2746   -1.6646 C.ar      1 <0>        -0.1716
     12 C11        -3.2219   -3.4697   -0.8845 C.ar      1 <0>        -0.0186
     13 C12        -2.6857   -2.2902   -0.3559 C.ar      1 <0>        -0.1710
     14 C13        -3.2141   -1.2268    0.4927 C.2       1 <0>         0.0952
     15 N2         -2.2616   -0.3584    0.6835 N.2       1 <0>        -0.2404
     16 C14        -3.0194   -5.5454   -2.2341 C.3       1 <0>         0.1971
     17 C15        -3.3451   -6.4966   -1.1115 C.ar      1 <0>        -0.0708
     18 C16        -2.6518   -7.6894   -0.9681 C.ar      1 <0>        -0.1452
     19 C17        -2.9774   -8.5371    0.0729 C.ar      1 <0>         0.1296
     20 N3         -3.9349   -8.2238    0.9244 N.ar      1 <0>        -0.4671
     21 C18        -4.6154   -7.0982    0.8193 C.ar      1 <0>         0.1836
     22 C19        -4.3402   -6.1975   -0.1948 C.ar      1 <0>        -0.1476
     23 Cl1        -5.8648   -6.7398    1.9701 Cl        1 <0>        -0.0165
     24 C20        -4.2949   -5.2221   -3.0148 C.3       1 <0>         0.4772
     25 F1         -3.9926   -4.3391   -4.0570 F         1 <0>        -0.1612
     26 F2         -4.8297   -6.4019   -3.5435 F         1 <0>        -0.1649
     27 F3         -5.2287   -4.6298   -2.1579 F         1 <0>        -0.1686
     28 O1         -2.0656   -6.1504   -3.1094 O.3       1 <0>        -0.5178
     29 F4          3.6807    1.9927   -0.0549 F         1 <0>        -0.1327
     30 H1         -0.8193    1.8721    0.0259 H         1 <0>         0.1443
     31 H2          1.3159    3.0953   -0.0061 H         1 <0>         0.1475
     32 H3          3.4422   -0.6060   -0.0718 H         1 <0>         0.1479
     33 H4          1.3104   -1.8352   -0.0457 H         1 <0>         0.1410
     34 H5          0.4471   -2.5329   -1.6561 H         1 <0>         0.1381
     35 H6         -0.5237   -4.5822   -2.5591 H         1 <0>         0.1424
     36 H7         -4.2462   -3.7415   -0.6763 H         1 <0>         0.1448
     37 H8         -4.2153   -1.1714    0.8940 H         1 <0>         0.2084
     38 H9         -1.8672   -7.9524   -1.6621 H         1 <0>         0.1525
     39 H10        -2.4420   -9.4676    0.1909 H         1 <0>         0.1753
     40 H11        -4.8971   -5.2755   -0.2735 H         1 <0>         0.1574
     41 H12        -1.2304   -6.3827   -2.6809 H         1 <0>         0.3990
@<TRIPOS>BOND
     1    1    6 ar
     2    1    2 ar
     3    1   30 1
     4    2    3 ar
     5    2   31 1
     6    3    4 ar
     7    3   29 1
     8    4    5 ar
     9    4   32 1
    10    5    6 ar
    11    5   33 1
    12    6    7 1
    13    7   15 1
    14    7    8 1
    15    8   13 ar
    16    8    9 ar
    17    9   10 ar
    18    9   34 1
    19   10   11 ar
    20   10   35 1
    21   11   12 ar
    22   11   16 1
    23   12   13 ar
    24   12   36 1
    25   13   14 1
    26   14   15 2
    27   14   37 1
    28   16   17 1
    29   16   24 1
    30   16   28 1
    31   17   22 ar
    32   17   18 ar
    33   18   19 ar
    34   18   38 1
    35   19   20 ar
    36   19   39 1
    37   20   21 ar
    38   21   22 ar
    39   21   23 1
    40   22   40 1
    41   24   25 1
    42   24   26 1
    43   24   27 1
    44   28   41 1
@<TRIPOS>MOLECULE
CHEMBL343135
   57    61     0     0     0
SMALL
USER_CHARGES

@<TRIPOS>ATOM
      1 C1         -0.0183    1.4995    0.0103 C.3       1 <0>        -0.1209
      2 C2          0.0021   -0.0041    0.0020 C.2       1 <0>        -0.0593
      3 C3         -0.1023   -0.5686   -1.2064 C.2       1 <0>        -0.1793
      4 C4         -0.0540   -2.0558   -1.3806 C.3       1 <0>         0.2111
      5 N1          0.7906   -2.6210   -0.3182 N.pl3     1 <0>        -0.7368
      6 C5          0.6084   -2.1607    0.9835 C.ar      1 <0>         0.2203
      7 C6          0.1303   -0.8427    1.2012 C.ar      1 <0>        -0.0871
      8 C7         -0.2528   -0.4996    2.4909 C.ar      1 <0>        -0.0565
      9 C8          0.0545   -1.3665    3.5561 C.ar      1 <0>        -0.0770
     10 C9          0.7360   -2.5564    3.3311 C.ar      1 <0>        -0.0435
     11 C10         0.9992   -2.9587    2.0394 C.ar      1 <0>        -0.1852
     12 C11        -0.3590   -0.9948    4.9289 C.ar      1 <0>        -0.1328
     13 C12        -0.6432    0.3556    5.1785 C.ar      1 <0>         0.1590
     14 C13        -1.0074    0.7732    6.4458 C.ar      1 <0>        -0.1792
     15 C14        -1.1038   -0.1471    7.4725 C.ar      1 <0>        -0.0495
     16 C15        -0.8415   -1.4836    7.2363 C.ar      1 <0>        -0.2359
     17 C16        -0.4806   -1.9153    5.9661 C.ar      1 <0>         0.1665
     18 O1         -0.2738   -3.2446    5.7700 O.3       1 <0>        -0.3094
     19 C17        -0.4256   -4.0992    6.9052 C.3       1 <0>         0.0240
     20 O2         -0.5580    1.2290    4.1447 O.3       1 <0>        -0.2983
     21 C18        -1.0003    0.7496    2.8663 C.3       1 <0>         0.1440
     22 C19        -2.4987    0.4250    2.9599 C.3       1 <0>        -0.1070
     23 C20        -3.2724    1.6929    3.2147 C.ar      1 <0>        -0.0799
     24 C21        -3.5119    2.1077    4.5114 C.ar      1 <0>        -0.1055
     25 C22        -4.2216    3.2707    4.7451 C.ar      1 <0>        -0.1181
     26 C23        -4.6914    4.0191    3.6821 C.ar      1 <0>        -0.1216
     27 C24        -4.4511    3.6048    2.3854 C.ar      1 <0>        -0.1190
     28 C25        -3.7377    2.4441    2.1516 C.ar      1 <0>        -0.1168
     29 C26         0.5508   -2.3919   -2.7445 C.3       1 <0>        -0.1526
     30 C27        -1.4603   -2.6458   -1.2915 C.3       1 <0>        -0.1569
     31 H1          0.6015    1.8668    0.8283 H         1 <0>         0.0680
     32 H2          0.3710    1.8734   -0.9367 H         1 <0>         0.0718
     33 H3         -1.0422    1.8483    0.1453 H         1 <0>         0.0711
     34 H4         -0.2326    0.0715   -2.0704 H         1 <0>         0.1238
     35 H5          1.4464   -3.3038   -0.5210 H         1 <0>         0.4023
     36 H6          1.0900   -3.1548    4.1531 H         1 <0>         0.1352
     37 H7          1.5065   -3.8941    1.8523 H         1 <0>         0.1260
     38 H8         -1.2131    1.8163    6.6329 H         1 <0>         0.1344
     39 H9         -1.3839    0.1806    8.4619 H         1 <0>         0.1327
     40 H10        -0.9179   -2.1982    8.0442 H         1 <0>         0.1331
     41 H11        -0.2331   -5.1311    6.6114 H         1 <0>         0.1015
     42 H12         0.2822   -3.8038    7.6796 H         1 <0>         0.0578
     43 H13        -1.4418   -4.0146    7.2903 H         1 <0>         0.0575
     44 H14        -0.8661    1.5636    2.1747 H         1 <0>         0.1279
     45 H15        -2.8326   -0.0225    2.0238 H         1 <0>         0.0889
     46 H16        -2.6684   -0.2748    3.7781 H         1 <0>         0.0815
     47 H17        -3.1448    1.5229    5.3419 H         1 <0>         0.1220
     48 H18        -4.4093    3.5944    5.7582 H         1 <0>         0.1213
     49 H19        -5.2465    4.9274    3.8647 H         1 <0>         0.1206
     50 H20        -4.8185    4.1894    1.5548 H         1 <0>         0.1214
     51 H21        -3.5468    2.1223    1.1385 H         1 <0>         0.1198
     52 H22         1.5610   -1.9869   -2.8037 H         1 <0>         0.0632
     53 H23         0.5853   -3.4741   -2.8699 H         1 <0>         0.0633
     54 H24        -0.0629   -1.9543   -3.5319 H         1 <0>         0.0744
     55 H25        -2.0849   -2.2159   -2.0745 H         1 <0>         0.0663
     56 H26        -1.4095   -3.7270   -1.4198 H         1 <0>         0.0600
     57 H27        -1.8898   -2.4154   -0.3165 H         1 <0>         0.0573
@<TRIPOS>BOND
     1    1    2 1
     2    1   31 1
     3    1   32 1
     4    1   33 1
     5    2    7 1
     6    2    3 2
     7    3    4 1
     8    3   34 1
     9    4    5 1
    10    4   29 1
    11    4   30 1
    12    5    6 1
    13    5   35 1
    14    6   11 ar
    15    6    7 ar
    16    7    8 ar
    17    8   21 1
    18    8    9 ar
    19    9   10 ar
    20    9   12 1
    21   10   11 ar
    22   10   36 1
    23   11   37 1
    24   12   17 ar
    25   12   13 ar
    26   13   14 ar
    27   13   20 1
    28   14   15 ar
    29   14   38 1
    30   15   16 ar
    31   15   39 1
    32   16   17 ar
    33   16   40 1
    34   17   18 1
    35   18   19 1
    36   19   41 1
    37   19   42 1
    38   19   43 1
    39   20   21 1
    40   21   22 1
    41   21   44 1
    42   22   23 1
    43   22   45 1
    44   22   46 1
    45   23   28 ar
    46   23   24 ar
    47   24   25 ar
    48   24   47 1
    49   25   26 ar
    50   25   48 1
    51   26   27 ar
    52   26   49 1
    53   27   28 ar
    54   27   50 1
    55   28   51 1
    56   29   52 1
    57   29   53 1
    58   29   54 1
    59   30   55 1
    60   30   56 1
    61   30   57 1
@<TRIPOS>MOLECULE
CHEMBL343135__1
   57    61     0     0     0
SMALL
USER_CHARGES

@<TRIPOS>ATOM
      1 C1         -0.2304    1.7181    0.0111 C.3       1 <0>        -0.1267
      2 C2         -0.1727    0.2179   -0.1044 C.2       1 <0>        -0.0612
      3 C3         -0.3418   -0.2761   -1.3324 C.2       1 <0>        -0.1761
      4 C4         -0.2893   -1.7532   -1.5989 C.3       1 <0>         0.2126
      5 N1          0.5899   -2.3875   -0.6123 N.pl3     1 <0>        -0.7375
      6 C5          0.5034   -1.9916    0.7236 C.ar      1 <0>         0.2202
      7 C6          0.0603   -0.6838    1.0344 C.ar      1 <0>        -0.0884
      8 C7         -0.1794   -0.3780    2.3656 C.ar      1 <0>        -0.0612
      9 C8          0.2199   -1.2766    3.3719 C.ar      1 <0>        -0.0738
     10 C9          0.7884   -2.4995    3.0417 C.ar      1 <0>        -0.0453
     11 C10         0.9266   -2.8541    1.7158 C.ar      1 <0>        -0.1839
     12 C11        -0.0134   -0.9012    4.7872 C.ar      1 <0>        -0.1308
     13 C12        -1.0178    0.0479    5.0418 C.ar      1 <0>         0.1564
     14 C13        -1.3141    0.4215    6.3369 C.ar      1 <0>        -0.1784
     15 C14        -0.6143   -0.1369    7.3923 C.ar      1 <0>        -0.0507
     16 C15         0.3839   -1.0605    7.1532 C.ar      1 <0>        -0.2325
     17 C16         0.6944   -1.4420    5.8521 C.ar      1 <0>         0.1656
     18 O1          1.7111   -2.3221    5.6559 O.3       1 <0>        -0.3098
     19 C17         2.3735   -2.8182    6.8209 C.3       1 <0>         0.0241
     20 O2         -1.6694    0.5909    3.9805 O.3       1 <0>        -0.2989
     21 C18        -0.8532    0.8851    2.8325 C.3       1 <0>         0.1463
     22 C19         0.1990    1.9138    3.2502 C.3       1 <0>        -0.1091
     23 C20        -0.4779    3.2193    3.5797 C.ar      1 <0>        -0.0795
     24 C21        -0.6798    4.1624    2.5894 C.ar      1 <0>        -0.1187
     25 C22        -1.3007    5.3599    2.8917 C.ar      1 <0>        -0.1190
     26 C23        -1.7202    5.6141    4.1841 C.ar      1 <0>        -0.1216
     27 C24        -1.5191    4.6706    5.1742 C.ar      1 <0>        -0.1180
     28 C25        -0.9021    3.4713    4.8710 C.ar      1 <0>        -0.1063
     29 C26         0.2629   -1.9996   -3.0047 C.3       1 <0>        -0.1525
     30 C27        -1.6941   -2.3478   -1.4943 C.3       1 <0>        -0.1579
     31 H1          0.4803    2.0519    0.7672 H         1 <0>         0.0704
     32 H2          0.0235    2.1665   -0.9493 H         1 <0>         0.0713
     33 H3         -1.2368    2.0218    0.2992 H         1 <0>         0.0725
     34 H4         -0.5196    0.4096   -2.1472 H         1 <0>         0.1237
     35 H5          1.2230   -3.0730   -0.8830 H         1 <0>         0.4020
     36 H6          1.1041   -3.1913    3.8064 H         1 <0>         0.1360
     37 H7          1.3653   -3.8068    1.4527 H         1 <0>         0.1259
     38 H8         -2.0901    1.1478    6.5298 H         1 <0>         0.1347
     39 H9         -0.8505    0.1516    8.4052 H         1 <0>         0.1330
     40 H10         0.9297   -1.4917    7.9800 H         1 <0>         0.1328
     41 H11         3.1622   -3.5095    6.5237 H         1 <0>         0.1017
     42 H12         2.8092   -1.9857    7.3734 H         1 <0>         0.0577
     43 H13         1.6545   -3.3378    7.4541 H         1 <0>         0.0578
     44 H14        -1.5098    1.2857    2.0722 H         1 <0>         0.1264
     45 H15         0.7342    1.5505    4.1275 H         1 <0>         0.0836
     46 H16         0.9032    2.0660    2.4323 H         1 <0>         0.0923
     47 H17        -0.3520    3.9638    1.5797 H         1 <0>         0.1211
     48 H18        -1.4578    6.0971    2.1181 H         1 <0>         0.1214
     49 H19        -2.2046    6.5500    4.4204 H         1 <0>         0.1205
     50 H20        -1.8466    4.8693    6.1840 H         1 <0>         0.1212
     51 H21        -0.7483    2.7327    5.6438 H         1 <0>         0.1227
     52 H22         1.2667   -1.5814   -3.0792 H         1 <0>         0.0630
     53 H23         0.3007   -3.0717   -3.1975 H         1 <0>         0.0633
     54 H24        -0.3854   -1.5211   -3.7387 H         1 <0>         0.0742
     55 H25        -2.3456   -1.8720   -2.2272 H         1 <0>         0.0660
     56 H26        -1.6505   -3.4195   -1.6885 H         1 <0>         0.0598
     57 H27        -2.0877   -2.1759   -0.4925 H         1 <0>         0.0575
@<TRIPOS>BOND
     1    1    2 1
     2    1   31 1
     3    1   32 1
     4    1   33 1
     5    2    7 1
     6    2    3 2
     7    3    4 1
     8    3   34 1
     9    4    5 1
    10    4   29 1
    11    4   30 1
    12    5    6 1
    13    5   35 1
    14    6   11 ar
    15    6    7 ar
    16    7    8 ar
    17    8   21 1
    18    8    9 ar
    19    9   10 ar
    20    9   12 1
    21   10   11 ar
    22   10   36 1
    23   11   37 1
    24   12   17 ar
    25   12   13 ar
    26   13   14 ar
    27   13   20 1
    28   14   15 ar
    29   14   38 1
    30   15   16 ar
    31   15   39 1
    32   16   17 ar
    33   16   40 1
    34   17   18 1
    35   18   19 1
    36   19   41 1
    37   19   42 1
    38   19   43 1
    39   20   21 1
    40   21   22 1
    41   21   44 1
    42   22   23 1
    43   22   45 1
    44   22   46 1
    45   23   28 ar
    46   23   24 ar
    47   24   25 ar
    48   24   47 1
    49   25   26 ar
    50   25   48 1
    51   26   27 ar
    52   26   49 1
    53   27   28 ar
    54   27   50 1
    55   28   51 1
    56   29   52 1
    57   29   53 1
    58   29   54 1
    59   30   55 1
    60   30   56 1
    61   30   57 1
@<TRIPOS>MOLECULE
CHEMBL238044
   54    56     0     0     0
SMALL
USER_CHARGES

@<TRIPOS>ATOM
      1 C1          0.8580    0.0961    0.7973 C.3       1 <0>        -0.1570
      2 C2         -0.1085   -0.1405   -0.3650 C.3       1 <0>        -0.0152
      3 C3          0.3499   -1.3584   -1.1696 C.3       1 <0>        -0.1355
      4 C4         -1.5144   -0.3915    0.1839 C.3       1 <0>        -0.1552
      5 C5         -1.7199    0.4329    1.4563 C.3       1 <0>         0.1066
      6 C6         -3.0806    0.0948    2.0688 C.3       1 <0>        -0.1115
      7 C7         -3.3364    0.9934    3.2513 C.ar      1 <0>        -0.0948
      8 C8         -2.9176    0.5949    4.5195 C.ar      1 <0>        -0.0908
      9 C9         -3.1334    1.3825    5.6082 C.ar      1 <0>        -0.1114
     10 C10        -3.7875    2.6169    5.4549 C.ar      1 <0>        -0.0461
     11 C11        -4.0276    3.4574    6.5553 C.ar      1 <0>        -0.1091
     12 C12        -4.6636    4.6460    6.3687 C.ar      1 <0>        -0.1150
     13 C13        -5.0820    5.0446    5.1004 C.ar      1 <0>        -0.1190
     14 C14        -4.8667    4.2567    4.0118 C.ar      1 <0>        -0.1039
     15 C15        -4.2129    3.0222    4.1652 C.ar      1 <0>        -0.0524
     16 C16        -3.9678    2.1843    3.0639 C.ar      1 <0>        -0.0757
     17 C17        -1.6717    1.9228    1.1119 C.3       1 <0>         0.4601
     18 F1         -2.6515    2.2126    0.1564 F         1 <0>        -0.1748
     19 F2         -1.9091    2.6762    2.2666 F         1 <0>        -0.1639
     20 F3         -0.4102    2.2421    0.5980 F         1 <0>        -0.1543
     21 O1         -0.6861    0.1270    2.3942 O.3       1 <0>        -0.5220
     22 C18        -0.1272    1.0734   -1.2579 C.ar      1 <0>        -0.0559
     23 C19        -1.3046    1.4674   -1.8641 C.ar      1 <0>        -0.1403
     24 C20        -1.3222    2.5827   -2.6840 C.ar      1 <0>         0.0715
     25 C21        -0.1601    3.3046   -2.8981 C.ar      1 <0>        -0.1251
     26 C22         1.0184    2.9130   -2.2932 C.ar      1 <0>        -0.1752
     27 C23         1.0362    1.7988   -1.4668 C.ar      1 <0>         0.1245
     28 O2          2.1941    1.4155   -0.8665 O.3       1 <0>        -0.2939
     29 C24         3.3535    2.2094   -1.1266 C.3       1 <0>         0.0152
     30 F4         -2.4741    2.9669   -3.2762 F         1 <0>        -0.1405
     31 H1          1.8789    0.1392    0.4178 H         1 <0>         0.0683
     32 H2          0.6126    1.0381    1.2878 H         1 <0>         0.0945
     33 H3          0.7710   -0.7203    1.5141 H         1 <0>         0.0577
     34 H4          0.2795   -2.2515   -0.5487 H         1 <0>         0.0608
     35 H5         -0.2864   -1.4748   -2.0469 H         1 <0>         0.0544
     36 H6          1.3832   -1.2167   -1.4864 H         1 <0>         0.0633
     37 H7         -2.2533   -0.0987   -0.5621 H         1 <0>         0.0931
     38 H8         -1.6307   -1.4505    0.4143 H         1 <0>         0.0967
     39 H9         -3.8617    0.2439    1.3234 H         1 <0>         0.0935
     40 H10        -3.0837   -0.9451    2.3954 H         1 <0>         0.0996
     41 H11        -2.4147   -0.3532    4.6401 H         1 <0>         0.1209
     42 H12        -2.8040    1.0604    6.5850 H         1 <0>         0.1262
     43 H13        -3.7093    3.1614    7.5440 H         1 <0>         0.1262
     44 H14        -4.8472    5.2899    7.2161 H         1 <0>         0.1227
     45 H15        -5.5850    5.9926    4.9797 H         1 <0>         0.1227
     46 H16        -5.1968    4.5784    3.0351 H         1 <0>         0.1251
     47 H17        -4.2825    2.4821    2.0746 H         1 <0>         0.1218
     48 H18        -0.6570   -0.8028    2.6582 H         1 <0>         0.3876
     49 H19        -2.2115    0.9048   -1.6986 H         1 <0>         0.1439
     50 H20        -0.1750    4.1741   -3.5385 H         1 <0>         0.1355
     51 H21         1.9247    3.4760   -2.4607 H         1 <0>         0.1366
     52 H22         3.5633    2.2066   -2.1962 H         1 <0>         0.0542
     53 H23         3.1757    3.2321   -0.7939 H         1 <0>         0.0550
     54 H24         4.2058    1.7952   -0.5881 H         1 <0>         0.1003
@<TRIPOS>BOND
     1    1    2 1
     2    1   31 1
     3    1   32 1
     4    1   33 1
     5    2    3 1
     6    2    4 1
     7    2   22 1
     8    3   34 1
     9    3   35 1
    10    3   36 1
    11    4    5 1
    12    4   37 1
    13    4   38 1
    14    5    6 1
    15    5   17 1
    16    5   21 1
    17    6    7 1
    18    6   39 1
    19    6   40 1
    20    7   16 ar
    21    7    8 ar
    22    8    9 ar
    23    8   41 1
    24    9   10 ar
    25    9   42 1
    26   10   15 ar
    27   10   11 ar
    28   11   12 ar
    29   11   43 1
    30   12   13 ar
    31   12   44 1
    32   13   14 ar
    33   13   45 1
    34   14   15 ar
    35   14   46 1
    36   15   16 ar
    37   16   47 1
    38   17   18 1
    39   17   19 1
    40   17   20 1
    41   21   48 1
    42   22   27 ar
    43   22   23 ar
    44   23   24 ar
    45   23   49 1
    46   24   25 ar
    47   24   30 1
    48   25   26 ar
    49   25   50 1
    50   26   27 ar
    51   26   51 1
    52   27   28 1
    53   28   29 1
    54   29   52 1
    55   29   53 1
    56   29   54 1
@<TRIPOS>MOLECULE
CHEMBL238044__1
   54    56     0     0     0
SMALL
USER_CHARGES

@<TRIPOS>ATOM
      1 C1          0.1982    0.4987   -1.5634 C.3       1 <0>        -0.1372
      2 C2         -0.0994    0.6103   -0.0668 C.3       1 <0>        -0.0133
      3 C3         -0.1583    2.0860    0.3328 C.3       1 <0>        -0.1569
      4 C4         -1.4436   -0.0544    0.2368 C.3       1 <0>        -0.1569
      5 C5         -2.0828    0.6197    1.4525 C.3       1 <0>         0.1054
      6 C6         -3.4725    0.0264    1.6927 C.3       1 <0>        -0.1135
      7 C7         -4.1021    0.6903    2.8901 C.ar      1 <0>        -0.0876
      8 C8         -3.8989    0.1518    4.1595 C.ar      1 <0>        -0.0938
      9 C9         -4.4533    0.7265    5.2615 C.ar      1 <0>        -0.1089
     10 C10        -5.2429    1.8806    5.1211 C.ar      1 <0>        -0.0461
     11 C11        -5.8314    2.5024    6.2356 C.ar      1 <0>        -0.1081
     12 C12        -6.5895    3.6191    6.0613 C.ar      1 <0>        -0.1158
     13 C13        -6.7925    4.1578    4.7920 C.ar      1 <0>        -0.1188
     14 C14        -6.2384    3.5828    3.6900 C.ar      1 <0>        -0.1045
     15 C15        -5.4492    2.4284    3.8304 C.ar      1 <0>        -0.0527
     16 C16        -4.8561    1.8099    2.7165 C.ar      1 <0>        -0.0819
     17 C17        -1.2077    0.3839    2.6852 C.3       1 <0>         0.4606
     18 F1          0.0803    0.8735    2.4433 F         1 <0>        -0.1522
     19 F2         -1.7609    1.0498    3.7842 F         1 <0>        -0.1632
     20 F3         -1.1423   -0.9872    2.9553 F         1 <0>        -0.1732
     21 O1         -2.1992    2.0235    1.2125 O.3       1 <0>        -0.5207
     22 C18         0.9895   -0.0787    0.7147 C.ar      1 <0>        -0.0467
     23 C19         0.7089   -1.2324    1.4214 C.ar      1 <0>        -0.1587
     24 C20         1.7091   -1.8657    2.1390 C.ar      1 <0>         0.0741
     25 C21         2.9917   -1.3439    2.1500 C.ar      1 <0>        -0.1276
     26 C22         3.2750   -0.1907    1.4444 C.ar      1 <0>        -0.1716
     27 C23         2.2750    0.4419    0.7202 C.ar      1 <0>         0.1164
     28 O2          2.5536    1.5738    0.0208 O.3       1 <0>        -0.3018
     29 C24         3.8989    2.0531    0.0716 C.3       1 <0>         0.0211
     30 F4          1.4334   -2.9937    2.8295 F         1 <0>        -0.1399
     31 H1          1.1103    1.0490   -1.7945 H         1 <0>         0.0695
     32 H2          0.3291   -0.5499   -1.8306 H         1 <0>         0.0530
     33 H3         -0.6326    0.9174   -2.1313 H         1 <0>         0.0595
     34 H4         -0.9775    2.5732   -0.1961 H         1 <0>         0.0585
     35 H5         -0.3217    2.1651    1.4076 H         1 <0>         0.0948
     36 H6          0.7822    2.5710    0.0716 H         1 <0>         0.0598
     37 H7         -2.1031    0.0495   -0.6248 H         1 <0>         0.0980
     38 H8         -1.2864   -1.1120    0.4486 H         1 <0>         0.0941
     39 H9         -4.0960    0.1944    0.8145 H         1 <0>         0.1000
     40 H10        -3.3838   -1.0444    1.8758 H         1 <0>         0.0952
     41 H11        -3.2926   -0.7351    4.2701 H         1 <0>         0.1185
     42 H12        -4.2878    0.2976    6.2388 H         1 <0>         0.1263
     43 H13        -5.6831    2.0960    7.2251 H         1 <0>         0.1260
     44 H14        -7.0410    4.0948    6.9194 H         1 <0>         0.1225
     45 H15        -7.3989    5.0446    4.6813 H         1 <0>         0.1225
     46 H16        -6.4046    4.0111    2.7126 H         1 <0>         0.1257
     47 H17        -5.0011    2.2187    1.7274 H         1 <0>         0.1245
     48 H18        -2.7417    2.2475    0.4439 H         1 <0>         0.3869
     49 H19        -0.2911   -1.6400    1.4142 H         1 <0>         0.1556
     50 H20         3.7709   -1.8387    2.7108 H         1 <0>         0.1356
     51 H21         4.2753    0.2162    1.4535 H         1 <0>         0.1366
     52 H22         4.1673    2.2737    1.1048 H         1 <0>         0.0553
     53 H23         4.5711    1.2916   -0.3238 H         1 <0>         0.0549
     54 H24         3.9845    2.9597   -0.5275 H         1 <0>         0.1009
@<TRIPOS>BOND
     1    1    2 1
     2    1   31 1
     3    1   32 1
     4    1   33 1
     5    2    3 1
     6    2    4 1
     7    2   22 1
     8    3   34 1
     9    3   35 1
    10    3   36 1
    11    4    5 1
    12    4   37 1
    13    4   38 1
    14    5    6 1
    15    5   17 1
    16    5   21 1
    17    6    7 1
    18    6   39 1
    19    6   40 1
    20    7   16 ar
    21    7    8 ar
    22    8    9 ar
    23    8   41 1
    24    9   10 ar
    25    9   42 1
    26   10   15 ar
    27   10   11 ar
    28   11   12 ar
    29   11   43 1
    30   12   13 ar
    31   12   44 1
    32   13   14 ar
    33   13   45 1
    34   14   15 ar
    35   14   46 1
    36   15   16 ar
    37   16   47 1
    38   17   18 1
    39   17   19 1
    40   17   20 1
    41   21   48 1
    42   22   27 ar
    43   22   23 ar
    44   23   24 ar
    45   23   49 1
    46   24   25 ar
    47   24   30 1
    48   25   26 ar
    49   25   50 1
    50   26   27 ar
    51   26   51 1
    52   27   28 1
    53   28   29 1
    54   29   52 1
    55   29   53 1
    56   29   54 1
@<TRIPOS>MOLECULE
CHEMBL231757
   68    73     0     0     0
SMALL
USER_CHARGES

@<TRIPOS>ATOM
      1 C1          0.0013    1.4168   -0.2784 C.3       1 <0>        -0.1239
      2 C2          0.0877   -0.0892   -0.1667 C.2       1 <0>        -0.0931
      3 C3          0.0627   -0.7739   -1.2813 C.2       1 <0>        -0.1469
      4 C4          0.2272   -2.2631   -1.3381 C.3       1 <0>         0.1448
      5 N1          0.8870   -2.7450   -0.1150 N.3       1 <0>        -0.6655
      6 C5          0.1899   -2.2749    1.0703 C.3       1 <0>         0.1195
      7 C6          0.2226   -0.7406    1.1545 C.3       1 <0>         0.0085
      8 C7         -0.7094   -0.3715    2.2563 C.2       1 <0>        -0.1010
      9 C8         -0.5001   -1.0535    3.4538 C.2       1 <0>        -0.0157
     10 C9          0.4958   -2.1313    3.4864 C.2       1 <0>        -0.1186
     11 C10         0.8312   -2.7626    2.3498 C.2       1 <0>        -0.1232
     12 C11        -1.2837   -0.6363    4.6267 C.ar      1 <0>        -0.1175
     13 C12        -2.0876    0.5150    4.5214 C.ar      1 <0>         0.1289
     14 C13        -2.8201    0.9578    5.6080 C.ar      1 <0>        -0.1284
     15 C14        -2.7755    0.2637    6.8029 C.ar      1 <0>        -0.0887
     16 C15        -2.0026   -0.8804    6.9174 C.ar      1 <0>         0.0581
     17 C16        -1.2595   -1.3379    5.8327 C.ar      1 <0>         0.1240
     18 O1         -0.5327   -2.4779    5.9705 O.3       1 <0>        -0.3202
     19 C17        -1.2184   -3.7138    5.7604 C.3       1 <0>         0.0367
     20 O2         -1.9680   -1.5633    8.0946 O.3       1 <0>        -0.4809
     21 O3         -2.1570    1.1811    3.3385 O.3       1 <0>        -0.2283
     22 C18        -1.8079    0.4861    2.2213 C.2       1 <0>         0.0985
     23 C19        -2.6189    0.5826    1.1360 C.2       1 <0>        -0.1283
     24 C20        -3.6424    1.6295    1.0770 C.ar      1 <0>        -0.0349
     25 C21        -3.5691    2.7367    1.9309 C.ar      1 <0>        -0.0982
     26 C22        -4.5349    3.7171    1.8692 C.ar      1 <0>        -0.1192
     27 C23        -5.5819    3.6165    0.9661 C.ar      1 <0>        -0.1162
     28 C24        -5.6728    2.5328    0.1157 C.ar      1 <0>        -0.1080
     29 C25        -4.7061    1.5326    0.1554 C.ar      1 <0>        -0.0406
     30 C26        -4.7966    0.3715   -0.7593 C.ar      1 <0>        -0.0427
     31 C27        -3.6861   -0.0183   -1.5082 C.ar      1 <0>        -0.1091
     32 C28        -3.7766   -1.1013   -2.3583 C.ar      1 <0>        -0.1168
     33 C29        -4.9655   -1.8001   -2.4690 C.ar      1 <0>        -0.1192
     34 C30        -6.0703   -1.4184   -1.7289 C.ar      1 <0>        -0.1173
     35 C31        -5.9909   -0.3404   -0.8713 C.ar      1 <0>        -0.1072
     36 C32         1.1058   -2.6156   -2.5428 C.3       1 <0>        -0.1353
     37 C33        -1.1347   -2.9295   -1.5069 C.3       1 <0>        -0.1768
     38 H1          1.0039    1.8314   -0.3836 H         1 <0>         0.0685
     39 H2         -0.5953    1.6828   -1.1509 H         1 <0>         0.0658
     40 H3         -0.4668    1.8214    0.6190 H         1 <0>         0.0661
     41 H4         -0.0827   -0.2385   -2.2043 H         1 <0>         0.1147
     42 H5          0.9759   -3.7502   -0.1238 H         1 <0>         0.3499
     43 H6         -0.8438   -2.6066    1.0729 H         1 <0>         0.0521
     44 H7          1.2443   -0.4885    1.5234 H         1 <0>         0.0960
     45 H8          0.9846   -2.4094    4.4081 H         1 <0>         0.1400
     46 H9          1.5253   -3.5814    2.3403 H         1 <0>         0.1344
     47 H10        -3.4292    1.8466    5.5261 H         1 <0>         0.1465
     48 H11        -3.3471    0.6142    7.6484 H         1 <0>         0.1468
     49 H12        -1.5643   -3.7665    4.7280 H         1 <0>         0.0480
     50 H13        -0.5405   -4.5439    5.9593 H         1 <0>         0.1001
     51 H14        -2.0736   -3.7739    6.4335 H         1 <0>         0.0444
     52 H15        -2.6441   -2.2505    8.1707 H         1 <0>         0.3850
     53 H16        -2.5093   -0.1122    0.3165 H         1 <0>         0.1514
     54 H17        -2.7567    2.8218    2.6373 H         1 <0>         0.1394
     55 H18        -4.4762    4.5699    2.5293 H         1 <0>         0.1232
     56 H19        -6.3326    4.3920    0.9277 H         1 <0>         0.1233
     57 H20        -6.4927    2.4632   -0.5838 H         1 <0>         0.1236
     58 H21        -2.7576    0.5266   -1.4229 H         1 <0>         0.1252
     59 H22        -2.9176   -1.4038   -2.9389 H         1 <0>         0.1242
     60 H23        -5.0314   -2.6469   -3.1360 H         1 <0>         0.1212
     61 H24        -6.9957   -1.9679   -1.8195 H         1 <0>         0.1231
     62 H25        -6.8529   -0.0459   -0.2911 H         1 <0>         0.1225
     63 H26         2.0803   -2.1398   -2.4335 H         1 <0>         0.0656
     64 H27         1.2333   -3.6969   -2.5956 H         1 <0>         0.0567
     65 H28         0.6288   -2.2610   -3.4566 H         1 <0>         0.0619
     66 H29        -1.5965   -2.5832   -2.4315 H         1 <0>         0.0691
     67 H30        -1.0073   -4.0113   -1.5474 H         1 <0>         0.0580
     68 H31        -1.7732   -2.6702   -0.6625 H         1 <0>         0.0563
@<TRIPOS>BOND
     1    1    2 1
     2    1   38 1
     3    1   39 1
     4    1   40 1
     5    2    7 1
     6    2    3 2
     7    3    4 1
     8    3   41 1
     9    4    5 1
    10    4   36 1
    11    4   37 1
    12    5    6 1
    13    5   42 1
    14    6   11 1
    15    6    7 1
    16    6   43 1
    17    7    8 1
    18    7   44 1
    19    8   22 1
    20    8    9 2
    21    9   10 1
    22    9   12 1
    23   10   11 2
    24   10   45 1
    25   11   46 1
    26   12   17 ar
    27   12   13 ar
    28   13   14 ar
    29   13   21 1
    30   14   15 ar
    31   14   47 1
    32   15   16 ar
    33   15   48 1
    34   16   17 ar
    35   16   20 1
    36   17   18 1
    37   18   19 1
    38   19   49 1
    39   19   50 1
    40   19   51 1
    41   20   52 1
    42   21   22 1
    43   22   23 2
    44   23   24 1
    45   23   53 1
    46   24   29 ar
    47   24   25 ar
    48   25   26 ar
    49   25   54 1
    50   26   27 ar
    51   26   55 1
    52   27   28 ar
    53   27   56 1
    54   28   29 ar
    55   28   57 1
    56   29   30 1
    57   30   35 ar
    58   30   31 ar
    59   31   32 ar
    60   31   58 1
    61   32   33 ar
    62   32   59 1
    63   33   34 ar
    64   33   60 1
    65   34   35 ar
    66   34   61 1
    67   35   62 1
    68   36   63 1
    69   36   64 1
    70   36   65 1
    71   37   66 1
    72   37   67 1
    73   37   68 1
@<TRIPOS>MOLECULE
CHEMBL231757__1
   69    74     0     0     0
SMALL
USER_CHARGES

@<TRIPOS>ATOM
      1 C1          0.0633    1.5789   -0.1812 C.3       1 <0>        -0.1341
      2 C2          0.1655    0.0719   -0.1165 C.2       1 <0>        -0.0703
      3 C3          0.1633   -0.5784   -1.2527 C.2       1 <0>        -0.1911
      4 C4          0.3509   -2.0613   -1.3554 C.3       1 <0>         0.1020
      5 N1          1.0081   -2.5766   -0.1454 N.4       1 <0>        -0.4874
      6 C5          0.2714   -2.1563    1.0342 C.3       1 <0>         0.0522
      7 C6          0.2867   -0.6268    1.1838 C.3       1 <0>        -0.0097
      8 C7         -0.6808   -0.3109    2.2726 C.2       1 <0>        -0.0961
      9 C8         -0.5131   -1.0526    3.4403 C.2       1 <0>        -0.0152
     10 C9          0.4929   -2.1213    3.4627 C.2       1 <0>        -0.0356
     11 C10         0.8754   -2.6956    2.3119 C.2       1 <0>        -0.2108
     12 C11        -1.3488   -0.7063    4.5996 C.ar      1 <0>        -0.1346
     13 C12        -2.1248    0.4671    4.5390 C.ar      1 <0>         0.1362
     14 C13        -2.8948    0.8492    5.6218 C.ar      1 <0>        -0.1257
     15 C14        -2.9255    0.0679    6.7623 C.ar      1 <0>        -0.0752
     16 C15        -2.1878   -1.1035    6.8264 C.ar      1 <0>         0.0633
     17 C16        -1.4006   -1.4977    5.7476 C.ar      1 <0>         0.1275
     18 O1         -0.7082   -2.6645    5.8301 O.3       1 <0>        -0.3236
     19 C17        -1.4208   -3.8648    5.5245 C.3       1 <0>         0.0343
     20 O2         -2.2317   -1.8747    7.9472 O.3       1 <0>        -0.4784
     21 O3         -2.1327    1.2049    3.3970 O.3       1 <0>        -0.2227
     22 C18        -1.7719    0.5570    2.2543 C.2       1 <0>         0.0741
     23 C19        -2.5673    0.7059    1.1640 C.2       1 <0>        -0.0992
     24 C20        -3.5715    1.7723    1.1299 C.ar      1 <0>        -0.0544
     25 C21        -3.4855    2.8510    2.0183 C.ar      1 <0>        -0.0898
     26 C22        -4.4332    3.8502    1.9799 C.ar      1 <0>        -0.1188
     27 C23        -5.4745    3.7964    1.0664 C.ar      1 <0>        -0.1022
     28 C24        -5.5779    2.7412    0.1821 C.ar      1 <0>        -0.1084
     29 C25        -4.6294    1.7231    0.1979 C.ar      1 <0>        -0.0348
     30 C26        -4.7331    0.5926   -0.7531 C.ar      1 <0>        -0.0427
     31 C27        -3.6238    0.2063   -1.5054 C.ar      1 <0>        -0.1166
     32 C28        -3.7267   -0.8481   -2.3895 C.ar      1 <0>        -0.1240
     33 C29        -4.9269   -1.5216   -2.5306 C.ar      1 <0>        -0.1172
     34 C30        -6.0306   -1.1432   -1.7873 C.ar      1 <0>        -0.1117
     35 C31        -5.9390   -0.0939   -0.8961 C.ar      1 <0>        -0.1020
     36 C32         1.2523   -2.3580   -2.5608 C.3       1 <0>        -0.1737
     37 C33        -0.9939   -2.7457   -1.5676 C.3       1 <0>        -0.1748
     38 H1          1.0625    2.0079   -0.2562 H         1 <0>         0.0851
     39 H2         -0.5220    1.8662   -1.0546 H         1 <0>         0.0819
     40 H3         -0.4243    1.9490    0.7207 H         1 <0>         0.0808
     41 H4          0.0141   -0.0171   -2.1597 H         1 <0>         0.1548
     42 H5          1.0449   -3.5866   -0.1871 H         1 <0>         0.4322
     43 H6         -0.7598   -2.4940    0.9958 H         1 <0>         0.1479
     44 H7          1.2951   -0.3749    1.5836 H         1 <0>         0.1198
     45 H8          0.9481   -2.4362    4.3903 H         1 <0>         0.1601
     46 H9          1.5809   -3.5038    2.2875 H         1 <0>         0.1560
     47 H10        -3.4721    1.7617    5.5810 H         1 <0>         0.1513
     48 H11        -3.5264    0.3716    7.6047 H         1 <0>         0.1530
     49 H12        -0.7740   -4.7251    5.6962 H         1 <0>         0.1037
     50 H13        -2.3003   -3.9381    6.1643 H         1 <0>         0.0504
     51 H14        -1.7319   -3.8468    4.4800 H         1 <0>         0.0453
     52 H15        -2.9275   -2.5461    7.9356 H         1 <0>         0.3897
     53 H16        -2.4597    0.0383    0.3219 H         1 <0>         0.1492
     54 H17        -2.6773    2.8997    2.7330 H         1 <0>         0.1396
     55 H18        -4.3646    4.6809    2.6666 H         1 <0>         0.1280
     56 H19        -6.2111    4.5860    1.0465 H         1 <0>         0.1287
     57 H20        -6.3932    2.7081   -0.5253 H         1 <0>         0.1276
     58 H21        -2.6865    0.7316   -1.3964 H         1 <0>         0.1222
     59 H22        -2.8686   -1.1479   -2.9728 H         1 <0>         0.1200
     60 H23        -5.0025   -2.3461   -3.2241 H         1 <0>         0.1239
     61 H24        -6.9648   -1.6729   -1.9018 H         1 <0>         0.1273
     62 H25        -6.8002    0.1980   -0.3134 H         1 <0>         0.1262
     63 H26         2.2173   -1.8706   -2.4217 H         1 <0>         0.0841
     64 H27         1.3984   -3.4346   -2.6490 H         1 <0>         0.0852
     65 H28         0.7817   -1.9797   -3.4683 H         1 <0>         0.1093
     66 H29        -1.4476   -2.3779   -2.4879 H         1 <0>         0.1111
     67 H30        -0.8458   -3.8231   -1.6408 H         1 <0>         0.0864
     68 H31        -1.6505   -2.5256   -0.7257 H         1 <0>         0.0802
     69 H32         1.9551   -2.2199   -0.1030 H         1 <0>         0.4301
@<TRIPOS>BOND
     1    1    2 1
     2    1   38 1
     3    1   39 1
     4    1   40 1
     5    2    7 1
     6    2    3 2
     7    3    4 1
     8    3   41 1
     9    4    5 1
    10    4   36 1
    11    4   37 1
    12    5    6 1
    13    5   42 1
    14    5   69 1
    15    6   11 1
    16    6    7 1
    17    6   43 1
    18    7    8 1
    19    7   44 1
    20    8   22 1
    21    8    9 2
    22    9   10 1
    23    9   12 1
    24   10   11 2
    25   10   45 1
    26   11   46 1
    27   12   17 ar
    28   12   13 ar
    29   13   14 ar
    30   13   21 1
    31   14   15 ar
    32   14   47 1
    33   15   16 ar
    34   15   48 1
    35   16   17 ar
    36   16   20 1
    37   17   18 1
    38   18   19 1
    39   19   49 1
    40   19   50 1
    41   19   51 1
    42   20   52 1
    43   21   22 1
    44   22   23 2
    45   23   24 1
    46   23   53 1
    47   24   29 ar
    48   24   25 ar
    49   25   26 ar
    50   25   54 1
    51   26   27 ar
    52   26   55 1
    53   27   28 ar
    54   27   56 1
    55   28   29 ar
    56   28   57 1
    57   29   30 1
    58   30   35 ar
    59   30   31 ar
    60   31   32 ar
    61   31   58 1
    62   32   33 ar
    63   32   59 1
    64   33   34 ar
    65   33   60 1
    66   34   35 ar
    67   34   61 1
    68   35   62 1
    69   36   63 1
    70   36   64 1
    71   36   65 1
    72   37   66 1
    73   37   67 1
    74   37   68 1
@<TRIPOS>MOLECULE
CHEMBL231757__2
   68    73     0     0     0
SMALL
USER_CHARGES

@<TRIPOS>ATOM
      1 C1          1.3467    2.4152   -1.3913 C.3       1 <0>        -0.1289
      2 C2          1.4837    0.9353   -1.1422 C.2       1 <0>        -0.1055
      3 C3          1.5804    0.1419   -2.1655 C.2       1 <0>        -0.1775
      4 C4          1.7262   -1.3471   -2.0354 C.3       1 <0>         0.1394
      5 N1          1.2981   -1.7817   -0.6999 N.3       1 <0>        -0.6581
      6 C5          1.9806   -0.9975    0.3398 C.3       1 <0>         0.1178
      7 C6          1.5083    0.4479    0.2777 C.3       1 <0>        -0.0282
      8 C7          2.3914    1.3368    1.1089 C.2       1 <0>        -0.1121
      9 C8          3.7253    1.0565    1.2241 C.2       1 <0>         0.0064
     10 C9          4.2845   -0.1328    0.5720 C.2       1 <0>        -0.1510
     11 C10         3.4677   -1.0914    0.1482 C.2       1 <0>        -0.1118
     12 C11         4.5685    1.9722    2.0138 C.ar      1 <0>        -0.1241
     13 C12         3.9633    3.0724    2.6410 C.ar      1 <0>         0.1303
     14 C13         4.7426    3.9443    3.3857 C.ar      1 <0>        -0.1280
     15 C14         6.1027    3.7302    3.5102 C.ar      1 <0>        -0.0867
     16 C15         6.7056    2.6436    2.8949 C.ar      1 <0>         0.0615
     17 C16         5.9418    1.7580    2.1441 C.ar      1 <0>         0.1253
     18 O1          6.5279    0.6903    1.5409 O.3       1 <0>        -0.3177
     19 C17         6.7369   -0.4738    2.3428 C.3       1 <0>         0.0305
     20 O2          8.0453    2.4445    3.0260 O.3       1 <0>        -0.4809
     21 O3          2.6316    3.2787    2.5231 O.3       1 <0>        -0.2124
     22 C18         1.8634    2.4616    1.7735 C.2       1 <0>         0.1214
     23 C19         0.5329    2.7328    1.6552 C.2       1 <0>        -0.1812
     24 C20        -0.0179    3.9631    2.2295 C.ar      1 <0>        -0.0232
     25 C21         0.8295    5.0257    2.5658 C.ar      1 <0>        -0.1124
     26 C22         0.3042    6.1795    3.1049 C.ar      1 <0>        -0.1158
     27 C23        -1.0606    6.2977    3.3179 C.ar      1 <0>        -0.1231
     28 C24        -1.9134    5.2616    2.9936 C.ar      1 <0>        -0.1048
     29 C25        -1.4068    4.0885    2.4424 C.ar      1 <0>        -0.0486
     30 C26        -2.3189    2.9770    2.0874 C.ar      1 <0>        -0.0381
     31 C27        -2.2393    2.3806    0.8290 C.ar      1 <0>        -0.1144
     32 C28        -3.0915    1.3451    0.5044 C.ar      1 <0>        -0.1177
     33 C29        -4.0234    0.8983    1.4240 C.ar      1 <0>        -0.1195
     34 C30        -4.1073    1.4858    2.6738 C.ar      1 <0>        -0.1162
     35 C31        -3.2571    2.5185    3.0122 C.ar      1 <0>        -0.1075
     36 C32         0.8626   -2.0359   -3.0940 C.3       1 <0>        -0.1390
     37 C33         3.1910   -1.7340   -2.2494 C.3       1 <0>        -0.1482
     38 H1          2.3365    2.8694   -1.4355 H         1 <0>         0.0646
     39 H2          0.8295    2.5782   -2.3368 H         1 <0>         0.0633
     40 H3          0.7748    2.8685   -0.5815 H         1 <0>         0.0726
     41 H4          1.5543    0.5726   -3.1556 H         1 <0>         0.1120
     42 H5          0.2959   -1.7166   -0.6024 H         1 <0>         0.3473
     43 H6          1.7228   -1.4049    1.3174 H         1 <0>         0.0989
     44 H7          0.4981    0.5007    0.6838 H         1 <0>         0.0952
     45 H8          5.3525   -0.2285    0.4426 H         1 <0>         0.1541
     46 H9          3.8851   -1.9533   -0.3511 H         1 <0>         0.1425
     47 H10         4.2853    4.7944    3.8702 H         1 <0>         0.1475
     48 H11         6.7013    4.4157    4.0918 H         1 <0>         0.1485
     49 H12         5.7782   -0.8366    2.7134 H         1 <0>         0.0529
     50 H13         7.2108   -1.2493    1.7410 H         1 <0>         0.1021
     51 H14         7.3811   -0.2235    3.1857 H         1 <0>         0.0473
     52 H15         8.2893    1.8987    3.7859 H         1 <0>         0.3866
     53 H16        -0.1153    2.0408    1.1380 H         1 <0>         0.1558
     54 H17         1.8938    4.9408    2.4031 H         1 <0>         0.1390
     55 H18         0.9601    6.9974    3.3638 H         1 <0>         0.1215
     56 H19        -1.4599    7.2076    3.7412 H         1 <0>         0.1222
     57 H20        -2.9750    5.3631    3.1640 H         1 <0>         0.1228
     58 H21        -1.5124    2.7287    0.1101 H         1 <0>         0.1238
     59 H22        -3.0311    0.8827   -0.4698 H         1 <0>         0.1228
     60 H23        -4.6885    0.0877    1.1652 H         1 <0>         0.1222
     61 H24        -4.8369    1.1326    3.3875 H         1 <0>         0.1238
     62 H25        -3.3207    2.9736    3.9896 H         1 <0>         0.1232
     63 H26         1.1867   -1.7234   -4.0867 H         1 <0>         0.0636
     64 H27         0.9672   -3.1169   -3.0012 H         1 <0>         0.0674
     65 H28        -0.1812   -1.7580   -2.9484 H         1 <0>         0.0553
     66 H29         3.8354   -0.9889   -1.7829 H         1 <0>         0.0708
     67 H30         3.3786   -2.7091   -1.7999 H         1 <0>         0.0717
     68 H31         3.4024   -1.7796   -3.3177 H         1 <0>         0.0584
@<TRIPOS>BOND
     1    1    2 1
     2    1   38 1
     3    1   39 1
     4    1   40 1
     5    2    7 1
     6    2    3 2
     7    3    4 1
     8    3   41 1
     9    4    5 1
    10    4   36 1
    11    4   37 1
    12    5    6 1
    13    5   42 1
    14    6   11 1
    15    6    7 1
    16    6   43 1
    17    7    8 1
    18    7   44 1
    19    8   22 1
    20    8    9 2
    21    9   10 1
    22    9   12 1
    23   10   11 2
    24   10   45 1
    25   11   46 1
    26   12   17 ar
    27   12   13 ar
    28   13   14 ar
    29   13   21 1
    30   14   15 ar
    31   14   47 1
    32   15   16 ar
    33   15   48 1
    34   16   17 ar
    35   16   20 1
    36   17   18 1
    37   18   19 1
    38   19   49 1
    39   19   50 1
    40   19   51 1
    41   20   52 1
    42   21   22 1
    43   22   23 2
    44   23   24 1
    45   23   53 1
    46   24   29 ar
    47   24   25 ar
    48   25   26 ar
    49   25   54 1
    50   26   27 ar
    51   26   55 1
    52   27   28 ar
    53   27   56 1
    54   28   29 ar
    55   28   57 1
    56   29   30 1
    57   30   35 ar
    58   30   31 ar
    59   31   32 ar
    60   31   58 1
    61   32   33 ar
    62   32   59 1
    63   33   34 ar
    64   33   60 1
    65   34   35 ar
    66   34   61 1
    67   35   62 1
    68   36   63 1
    69   36   64 1
    70   36   65 1
    71   37   66 1
    72   37   67 1
    73   37   68 1
@<TRIPOS>MOLECULE
CHEMBL231757__3
   69    74     0     0     0
SMALL
USER_CHARGES

@<TRIPOS>ATOM
      1 C1          1.3109    2.7463   -1.1651 C.3       1 <0>        -0.1383
      2 C2          1.3326    1.2410   -1.0962 C.2       1 <0>        -0.0775
      3 C3          1.3897    0.5680   -2.2060 C.2       1 <0>        -0.1810
      4 C4          1.4194   -0.9327   -2.2490 C.3       1 <0>         0.1026
      5 N1          0.9073   -1.4872   -0.9905 N.4       1 <0>        -0.4966
      6 C5          1.6435   -0.8945    0.1346 C.3       1 <0>         0.0774
      7 C6          1.2933    0.5817    0.2530 C.3       1 <0>        -0.0226
      8 C7          2.2378    1.2825    1.1904 C.2       1 <0>        -0.0986
      9 C8          3.5425    0.8794    1.2700 C.2       1 <0>        -0.0033
     10 C9          4.0087   -0.2609    0.4731 C.2       1 <0>        -0.0630
     11 C10         3.1196   -1.0874   -0.0675 C.2       1 <0>        -0.2153
     12 C11         4.4497    1.6148    2.1694 C.ar      1 <0>        -0.1370
     13 C12         3.9312    2.6751    2.9290 C.ar      1 <0>         0.1379
     14 C13         4.7718    3.3786    3.7778 C.ar      1 <0>        -0.1241
     15 C14         6.1078    3.0370    3.8761 C.ar      1 <0>        -0.0748
     16 C15         6.6250    1.9885    3.1303 C.ar      1 <0>         0.0685
     17 C16         5.7988    1.2710    2.2735 C.ar      1 <0>         0.1253
     18 O1          6.3009    0.2415    1.5419 O.3       1 <0>        -0.3213
     19 C17         6.4212   -1.0224    2.1978 C.3       1 <0>         0.0262
     20 O2          7.9416    1.6622    3.2373 O.3       1 <0>        -0.4785
     21 O3          2.6229    3.0063    2.8362 O.3       1 <0>        -0.2071
     22 C18         1.7974    2.3551    1.9910 C.2       1 <0>         0.1025
     23 C19         0.4947    2.7477    1.9088 C.2       1 <0>        -0.1533
     24 C20         0.0567    3.9773    2.5744 C.ar      1 <0>        -0.0415
     25 C21         0.9934    4.9460    2.9544 C.ar      1 <0>        -0.1023
     26 C22         0.5739    6.0998    3.5793 C.ar      1 <0>        -0.1152
     27 C23        -0.7721    6.3105    3.8360 C.ar      1 <0>        -0.1091
     28 C24        -1.7118    5.3677    3.4700 C.ar      1 <0>        -0.1053
     29 C25        -1.3128    4.1970    2.8322 C.ar      1 <0>        -0.0422
     30 C26        -2.3183    3.1859    2.4323 C.ar      1 <0>        -0.0382
     31 C27        -2.3141    2.6683    1.1370 C.ar      1 <0>        -0.1219
     32 C28        -3.2533    1.7262    0.7706 C.ar      1 <0>        -0.1242
     33 C29        -4.1977    1.2948    1.6850 C.ar      1 <0>        -0.1190
     34 C30        -4.2069    1.8043    2.9712 C.ar      1 <0>        -0.1115
     35 C31        -3.2698    2.7430    3.3512 C.ar      1 <0>        -0.1032
     36 C32         0.5513   -1.4236   -3.4093 C.3       1 <0>        -0.1724
     37 C33         2.8589   -1.4052   -2.4623 C.3       1 <0>        -0.1836
     38 H1          2.3325    3.1257   -1.1438 H         1 <0>         0.0820
     39 H2          0.8257    3.0607   -2.0891 H         1 <0>         0.0799
     40 H3          0.7588    3.1411   -0.3122 H         1 <0>         0.0838
     41 H4          1.4167    1.1118   -3.1387 H         1 <0>         0.1536
     42 H5         -0.0744   -1.2715   -0.9020 H         1 <0>         0.4308
     43 H6          1.3444   -1.3950    1.0555 H         1 <0>         0.1516
     44 H7          0.2851    0.6691    0.6579 H         1 <0>         0.1251
     45 H8          5.0664   -0.4280    0.3325 H         1 <0>         0.1736
     46 H9          3.4695   -1.9116   -0.6714 H         1 <0>         0.1630
     47 H10         4.3814    4.1970    4.3645 H         1 <0>         0.1528
     48 H11         6.7547    3.5920    4.5394 H         1 <0>         0.1547
     49 H12         6.8337   -1.7543    1.5034 H         1 <0>         0.1053
     50 H13         7.0836   -0.9238    3.0578 H         1 <0>         0.0544
     51 H14         5.4380   -1.3531    2.5325 H         1 <0>         0.0501
     52 H15         8.1300    1.0072    3.9232 H         1 <0>         0.3913
     53 H16        -0.2146    2.1523    1.3531 H         1 <0>         0.1530
     54 H17         2.0437    4.7888    2.7580 H         1 <0>         0.1366
     55 H18         1.2987    6.8452    3.8716 H         1 <0>         0.1262
     56 H19        -1.0880    7.2193    4.3267 H         1 <0>         0.1276
     57 H20        -2.7579    5.5408    3.6750 H         1 <0>         0.1266
     58 H21        -1.5776    3.0046    0.4223 H         1 <0>         0.1224
     59 H22        -3.2513    1.3250   -0.2321 H         1 <0>         0.1209
     60 H23        -4.9309    0.5574    1.3934 H         1 <0>         0.1238
     61 H24        -4.9467    1.4636    3.6805 H         1 <0>         0.1274
     62 H25        -3.2754    3.1370    4.3568 H         1 <0>         0.1266
     63 H26         0.9383   -1.0244   -4.3468 H         1 <0>         0.1082
     64 H27         0.5713   -2.5130   -3.4425 H         1 <0>         0.0844
     65 H28        -0.4741   -1.0833   -3.2653 H         1 <0>         0.0831
     66 H29         3.5406   -0.7489   -1.9213 H         1 <0>         0.1036
     67 H30         2.9653   -2.4247   -2.0917 H         1 <0>         0.0835
     68 H31         3.0962   -1.3785   -3.5258 H         1 <0>         0.1020
     69 H32         1.0347   -2.4882   -0.9868 H         1 <0>         0.4334
@<TRIPOS>BOND
     1    1    2 1
     2    1   38 1
     3    1   39 1
     4    1   40 1
     5    2    7 1
     6    2    3 2
     7    3    4 1
     8    3   41 1
     9    4    5 1
    10    4   36 1
    11    4   37 1
    12    5    6 1
    13    5   42 1
    14    5   69 1
    15    6   11 1
    16    6    7 1
    17    6   43 1
    18    7    8 1
    19    7   44 1
    20    8   22 1
    21    8    9 2
    22    9   10 1
    23    9   12 1
    24   10   11 2
    25   10   45 1
    26   11   46 1
    27   12   17 ar
    28   12   13 ar
    29   13   14 ar
    30   13   21 1
    31   14   15 ar
    32   14   47 1
    33   15   16 ar
    34   15   48 1
    35   16   17 ar
    36   16   20 1
    37   17   18 1
    38   18   19 1
    39   19   49 1
    40   19   50 1
    41   19   51 1
    42   20   52 1
    43   21   22 1
    44   22   23 2
    45   23   24 1
    46   23   53 1
    47   24   29 ar
    48   24   25 ar
    49   25   26 ar
    50   25   54 1
    51   26   27 ar
    52   26   55 1
    53   27   28 ar
    54   27   56 1
    55   28   29 ar
    56   28   57 1
    57   29   30 1
    58   30   35 ar
    59   30   31 ar
    60   31   32 ar
    61   31   58 1
    62   32   33 ar
    63   32   59 1
    64   33   34 ar
    65   33   60 1
    66   34   35 ar
    67   34   61 1
    68   35   62 1
    69   36   63 1
    70   36   64 1
    71   36   65 1
    72   37   66 1
    73   37   67 1
    74   37   68 1
@<TRIPOS>MOLECULE
CHEMBL231757__4
   68    73     0     0     0
SMALL
USER_CHARGES

@<TRIPOS>ATOM
      1 C1          0.0467    1.8530   -0.7502 C.3       1 <0>        -0.1245
      2 C2          0.0439    0.3654   -0.9916 C.2       1 <0>        -0.0986
      3 C3         -0.0309   -0.0627   -2.2151 C.2       1 <0>        -0.1444
      4 C4         -0.0475   -1.5215   -2.5718 C.3       1 <0>         0.1426
      5 N1          0.4732   -2.3201   -1.4552 N.3       1 <0>        -0.6634
      6 C5         -0.2257   -1.9778   -0.2077 C.3       1 <0>         0.1183
      7 C6          0.1339   -0.5519    0.1936 C.3       1 <0>         0.0145
      8 C7         -0.7739   -0.0640    1.2885 C.2       1 <0>        -0.1067
      9 C8         -2.0729   -0.4902    1.3372 C.2       1 <0>        -0.0022
     10 C9         -2.5669   -1.4538    0.3473 C.2       1 <0>        -0.1388
     11 C10        -1.7069   -2.1419   -0.3978 C.2       1 <0>        -0.1623
     12 C11        -2.9452    0.0399    2.4006 C.ar      1 <0>        -0.1265
     13 C12        -2.3996    0.9317    3.3370 C.ar      1 <0>         0.1340
     14 C13        -3.2073    1.4414    4.3419 C.ar      1 <0>        -0.1274
     15 C14        -4.5371    1.0719    4.4218 C.ar      1 <0>        -0.0886
     16 C15        -5.0809    0.1888    3.5012 C.ar      1 <0>         0.0660
     17 C16        -4.2880   -0.3324    2.4858 C.ar      1 <0>         0.1229
     18 O1         -4.8163   -1.1991    1.5819 O.3       1 <0>        -0.3236
     19 C17        -4.7498   -2.5903    1.9016 C.3       1 <0>         0.0327
     20 O2         -6.3910   -0.1675    3.5922 O.3       1 <0>        -0.4866
     21 O3         -1.0971    1.2890    3.2617 O.3       1 <0>        -0.2162
     22 C18        -0.3051    0.8319    2.2700 C.2       1 <0>         0.1130
     23 C19         0.9910    1.2500    2.2157 C.2       1 <0>        -0.1615
     24 C20         1.4616    2.2976    3.1256 C.ar      1 <0>        -0.0246
     25 C21         0.5677    3.2529    3.6242 C.ar      1 <0>        -0.1032
     26 C22         1.0175    4.2346    4.4796 C.ar      1 <0>        -0.1174
     27 C23         2.3519    4.2848    4.8521 C.ar      1 <0>        -0.1212
     28 C24         3.2497    3.3528    4.3715 C.ar      1 <0>        -0.1063
     29 C25         2.8178    2.3482    3.5107 C.ar      1 <0>        -0.0438
     30 C26         3.7765    1.3427    2.9978 C.ar      1 <0>        -0.0436
     31 C27         3.4721   -0.0166    3.0714 C.ar      1 <0>        -0.1032
     32 C28         4.3692   -0.9485    2.5913 C.ar      1 <0>        -0.1182
     33 C29         5.5686   -0.5372    2.0378 C.ar      1 <0>        -0.1171
     34 C30         5.8763    0.8096    1.9620 C.ar      1 <0>        -0.1188
     35 C31         4.9852    1.7514    2.4338 C.ar      1 <0>        -0.1069
     36 C32         0.8229   -1.7511   -3.8090 C.3       1 <0>        -0.1345
     37 C33        -1.4832   -1.9527   -2.8778 C.3       1 <0>        -0.1870
     38 H1          1.0726    2.2211   -0.7625 H         1 <0>         0.0693
     39 H2         -0.5267    2.3492   -1.5332 H         1 <0>         0.0611
     40 H3         -0.4037    2.0645    0.2196 H         1 <0>         0.0651
     41 H4         -0.0840    0.6634   -3.0127 H         1 <0>         0.1131
     42 H5          0.4001   -3.3071   -1.6516 H         1 <0>         0.3484
     43 H6          0.1073   -2.6519    0.5814 H         1 <0>         0.0961
     44 H7          1.1563   -0.5375    0.5711 H         1 <0>         0.1026
     45 H8         -3.6289   -1.6028    0.2187 H         1 <0>         0.1499
     46 H9         -2.0731   -2.8323   -1.1431 H         1 <0>         0.1360
     47 H10        -2.7959    2.1296    5.0655 H         1 <0>         0.1473
     48 H11        -5.1580    1.4743    5.2085 H         1 <0>         0.1482
     49 H12        -5.2857   -2.7752    2.8326 H         1 <0>         0.0547
     50 H13        -5.2055   -3.1698    1.0987 H         1 <0>         0.0988
     51 H14        -3.7073   -2.8871    2.0173 H         1 <0>         0.0515
     52 H15        -6.9904    0.4082    3.0978 H         1 <0>         0.3934
     53 H16         1.6712    0.8090    1.5021 H         1 <0>         0.1514
     54 H17        -0.4733    3.2204    3.3382 H         1 <0>         0.1287
     55 H18         0.3258    4.9704    4.8624 H         1 <0>         0.1213
     56 H19         2.6918    5.0596    5.5234 H         1 <0>         0.1220
     57 H20         4.2874    3.4008    4.6670 H         1 <0>         0.1228
     58 H21         2.5363   -0.3389    3.5035 H         1 <0>         0.1224
     59 H22         4.1348   -2.0012    2.6480 H         1 <0>         0.1225
     60 H23         6.2677   -1.2704    1.6637 H         1 <0>         0.1215
     61 H24         6.8142    1.1245    1.5288 H         1 <0>         0.1230
     62 H25         5.2247    2.8026    2.3703 H         1 <0>         0.1225
     63 H26         1.8456   -1.4396   -3.5967 H         1 <0>         0.0651
     64 H27         0.8121   -2.8095   -4.0695 H         1 <0>         0.0567
     65 H28         0.4310   -1.1679   -4.6423 H         1 <0>         0.0612
     66 H29        -1.7396   -1.6647   -3.8973 H         1 <0>         0.0611
     67 H30        -1.5677   -3.0344   -2.7736 H         1 <0>         0.0591
     68 H31        -2.1651   -1.4661   -2.1804 H         1 <0>         0.0761
@<TRIPOS>BOND
     1    1    2 1
     2    1   38 1
     3    1   39 1
     4    1   40 1
     5    2    7 1
     6    2    3 2
     7    3    4 1
     8    3   41 1
     9    4    5 1
    10    4   36 1
    11    4   37 1
    12    5    6 1
    13    5   42 1
    14    6   11 1
    15    6    7 1
    16    6   43 1
    17    7    8 1
    18    7   44 1
    19    8   22 1
    20    8    9 2
    21    9   10 1
    22    9   12 1
    23   10   11 2
    24   10   45 1
    25   11   46 1
    26   12   17 ar
    27   12   13 ar
    28   13   14 ar
    29   13   21 1
    30   14   15 ar
    31   14   47 1
    32   15   16 ar
    33   15   48 1
    34   16   17 ar
    35   16   20 1
    36   17   18 1
    37   18   19 1
    38   19   49 1
    39   19   50 1
    40   19   51 1
    41   20   52 1
    42   21   22 1
    43   22   23 2
    44   23   24 1
    45   23   53 1
    46   24   29 ar
    47   24   25 ar
    48   25   26 ar
    49   25   54 1
    50   26   27 ar
    51   26   55 1
    52   27   28 ar
    53   27   56 1
    54   28   29 ar
    55   28   57 1
    56   29   30 1
    57   30   35 ar
    58   30   31 ar
    59   31   32 ar
    60   31   58 1
    61   32   33 ar
    62   32   59 1
    63   33   34 ar
    64   33   60 1
    65   34   35 ar
    66   34   61 1
    67   35   62 1
    68   36   63 1
    69   36   64 1
    70   36   65 1
    71   37   66 1
    72   37   67 1
    73   37   68 1
@<TRIPOS>MOLECULE
CHEMBL231757__5
   69    74     0     0     0
SMALL
USER_CHARGES

@<TRIPOS>ATOM
      1 C1          0.0905    1.7160   -0.7912 C.3       1 <0>        -0.1343
      2 C2          0.0922    0.2357   -1.0734 C.2       1 <0>        -0.0774
      3 C3         -0.0130   -0.1631   -2.3053 C.2       1 <0>        -0.1816
      4 C4         -0.0250   -1.6133   -2.6948 C.3       1 <0>         0.1030
      5 N1          0.5588   -2.4314   -1.6256 N.4       1 <0>        -0.4973
      6 C5         -0.1259   -2.1339   -0.3599 C.3       1 <0>         0.0764
      7 C6          0.2217   -0.7168    0.0810 C.3       1 <0>        -0.0225
      8 C7         -0.6733   -0.2777    1.2070 C.2       1 <0>        -0.0986
      9 C8         -1.9655   -0.7232    1.2633 C.2       1 <0>        -0.0028
     10 C9         -2.4640   -1.6601    0.2502 C.2       1 <0>        -0.0672
     11 C10        -1.6077   -2.3115   -0.5312 C.2       1 <0>        -0.2136
     12 C11        -2.8260   -0.2409    2.3586 C.ar      1 <0>        -0.1407
     13 C12        -2.2763    0.6281    3.3140 C.ar      1 <0>         0.1400
     14 C13        -3.0730    1.0929    4.3490 C.ar      1 <0>        -0.1236
     15 C14        -4.3960    0.7017    4.4398 C.ar      1 <0>        -0.0763
     16 C15        -4.9435   -0.1592    3.5007 C.ar      1 <0>         0.0741
     17 C16        -4.1617   -0.6356    2.4551 C.ar      1 <0>         0.1245
     18 O1         -4.6936   -1.4807    1.5330 O.3       1 <0>        -0.3258
     19 C17        -4.6016   -2.8802    1.8065 C.3       1 <0>         0.0280
     20 O2         -6.2465   -0.5377    3.6029 O.3       1 <0>        -0.4843
     21 O3         -0.9805    1.0067    3.2279 O.3       1 <0>        -0.2100
     22 C18        -0.1993    0.5916    2.2095 C.2       1 <0>         0.0977
     23 C19         1.0909    1.0270    2.1485 C.2       1 <0>        -0.1391
     24 C20         1.5647    2.0478    3.0867 C.ar      1 <0>        -0.0419
     25 C21         0.6711    2.9834    3.6219 C.ar      1 <0>        -0.0966
     26 C22         1.1240    3.9399    4.5038 C.ar      1 <0>        -0.1158
     27 C23         2.4612    3.9841    4.8670 C.ar      1 <0>        -0.1087
     28 C24         3.3587    3.0711    4.3505 C.ar      1 <0>        -0.1061
     29 C25         2.9238    2.0920    3.4624 C.ar      1 <0>        -0.0401
     30 C26         3.8822    1.1069    2.9107 C.ar      1 <0>        -0.0430
     31 C27         3.5837   -0.2553    2.9444 C.ar      1 <0>        -0.1102
     32 C28         4.4805   -1.1681    2.4285 C.ar      1 <0>        -0.1260
     33 C29         5.6737   -0.7348    1.8785 C.ar      1 <0>        -0.1180
     34 C30         5.9756    0.6149    1.8421 C.ar      1 <0>        -0.1149
     35 C31         5.0846    1.5379    2.3501 C.ar      1 <0>        -0.1034
     36 C32         0.7881   -1.8003   -3.9773 C.3       1 <0>        -0.1727
     37 C33        -1.4673   -2.0592   -2.9438 C.3       1 <0>        -0.1837
     38 H1          1.1129    2.0928   -0.8215 H         1 <0>         0.0853
     39 H2         -0.5081    2.2287   -1.5441 H         1 <0>         0.0780
     40 H3         -0.3344    1.8972    0.1961 H         1 <0>         0.0787
     41 H4         -0.0959    0.5811   -3.0836 H         1 <0>         0.1531
     42 H5          0.4450   -3.4088   -1.8487 H         1 <0>         0.4330
     43 H6          0.2272   -2.8266    0.4041 H         1 <0>         0.1511
     44 H7          1.2514   -0.6986    0.4381 H         1 <0>         0.1265
     45 H8         -3.5260   -1.8187    0.1342 H         1 <0>         0.1727
     46 H9         -1.9776   -2.9815   -1.2932 H         1 <0>         0.1647
     47 H10        -2.6585    1.7630    5.0876 H         1 <0>         0.1524
     48 H11        -5.0084    1.0697    5.2496 H         1 <0>         0.1547
     49 H12        -5.0634   -3.4404    0.9934 H         1 <0>         0.1036
     50 H13        -3.5532   -3.1651    1.8945 H         1 <0>         0.0479
     51 H14        -5.1182   -3.1027    2.7402 H         1 <0>         0.0618
     52 H15        -6.8628    0.0446    3.1381 H         1 <0>         0.3988
     53 H16         1.7639    0.6195    1.4086 H         1 <0>         0.1461
     54 H17        -0.3720    2.9554    3.3433 H         1 <0>         0.1292
     55 H18         0.4326    4.6606    4.9148 H         1 <0>         0.1260
     56 H19         2.8036    4.7389    5.5593 H         1 <0>         0.1273
     57 H20         4.3986    3.1142    4.6391 H         1 <0>         0.1263
     58 H21         2.6526   -0.5947    3.3738 H         1 <0>         0.1219
     59 H22         4.2506   -2.2230    2.4543 H         1 <0>         0.1212
     60 H23         6.3727   -1.4532    1.4762 H         1 <0>         0.1233
     61 H24         6.9087    0.9470    1.4115 H         1 <0>         0.1267
     62 H25         5.3195    2.5915    2.3175 H         1 <0>         0.1261
     63 H26         1.8151   -1.4771   -3.8067 H         1 <0>         0.0829
     64 H27         0.7809   -2.8524   -4.2620 H         1 <0>         0.0845
     65 H28         0.3478   -1.2045   -4.7768 H         1 <0>         0.1082
     66 H29        -1.7647   -1.7795   -3.9544 H         1 <0>         0.1020
     67 H30        -1.5378   -3.1410   -2.8305 H         1 <0>         0.0834
     68 H31        -2.1268   -1.5747   -2.2238 H         1 <0>         0.1041
     69 H32         1.5408   -2.2177   -1.5358 H         1 <0>         0.4307
@<TRIPOS>BOND
     1    1    2 1
     2    1   38 1
     3    1   39 1
     4    1   40 1
     5    2    7 1
     6    2    3 2
     7    3    4 1
     8    3   41 1
     9    4    5 1
    10    4   36 1
    11    4   37 1
    12    5    6 1
    13    5   42 1
    14    5   69 1
    15    6   11 1
    16    6    7 1
    17    6   43 1
    18    7    8 1
    19    7   44 1
    20    8   22 1
    21    8    9 2
    22    9   10 1
    23    9   12 1
    24   10   11 2
    25   10   45 1
    26   11   46 1
    27   12   17 ar
    28   12   13 ar
    29   13   14 ar
    30   13   21 1
    31   14   15 ar
    32   14   47 1
    33   15   16 ar
    34   15   48 1
    35   16   17 ar
    36   16   20 1
    37   17   18 1
    38   18   19 1
    39   19   49 1
    40   19   50 1
    41   19   51 1
    42   20   52 1
    43   21   22 1
    44   22   23 2
    45   23   24 1
    46   23   53 1
    47   24   29 ar
    48   24   25 ar
    49   25   26 ar
    50   25   54 1
    51   26   27 ar
    52   26   55 1
    53   27   28 ar
    54   27   56 1
    55   28   29 ar
    56   28   57 1
    57   29   30 1
    58   30   35 ar
    59   30   31 ar
    60   31   32 ar
    61   31   58 1
    62   32   33 ar
    63   32   59 1
    64   33   34 ar
    65   33   60 1
    66   34   35 ar
    67   34   61 1
    68   35   62 1
    69   36   63 1
    70   36   64 1
    71   36   65 1
    72   37   66 1
    73   37   67 1
    74   37   68 1
@<TRIPOS>MOLECULE
CHEMBL231757__6
   68    73     0     0     0
SMALL
USER_CHARGES

@<TRIPOS>ATOM
      1 C1          0.1136    1.5302   -0.2585 C.3       1 <0>        -0.1218
      2 C2          0.0780    0.0200   -0.1801 C.2       1 <0>        -0.1013
      3 C3          0.1240   -0.6379   -1.3099 C.2       1 <0>        -0.1788
      4 C4          0.0103   -2.1301   -1.4014 C.3       1 <0>         0.1441
      5 N1         -0.6308   -2.6608   -0.1884 N.3       1 <0>        -0.6603
      6 C5          0.0527   -2.1944    1.0056 C.3       1 <0>         0.1218
      7 C6         -0.0324   -0.6645    1.1270 C.3       1 <0>        -0.0329
      8 C7          0.8902   -0.2901    2.2349 C.2       1 <0>        -0.0935
      9 C8          0.7171   -1.0154    3.4127 C.2       1 <0>        -0.0201
     10 C9         -0.2419   -2.1268    3.4250 C.2       1 <0>        -0.1188
     11 C10        -0.5652   -2.7375    2.2742 C.2       1 <0>        -0.1238
     12 C11         1.4992   -0.6097    4.5904 C.ar      1 <0>        -0.1191
     13 C12         2.2441    0.5833    4.5218 C.ar      1 <0>         0.1261
     14 C13         2.9684    1.0161    5.6174 C.ar      1 <0>        -0.1285
     15 C14         2.9783    0.2707    6.7818 C.ar      1 <0>        -0.0909
     16 C15         2.2672   -0.9159    6.8568 C.ar      1 <0>         0.0627
     17 C16         1.5303   -1.3639    5.7641 C.ar      1 <0>         0.1234
     18 O1          0.8656   -2.5453    5.8608 O.3       1 <0>        -0.3257
     19 C17         1.5801   -3.7243    5.4845 C.3       1 <0>         0.0401
     20 O2          2.2878   -1.6500    8.0030 O.3       1 <0>        -0.4873
     21 O3          2.2647    1.2947    3.3634 O.3       1 <0>        -0.2287
     22 C18         1.9498    0.6159    2.2252 C.2       1 <0>         0.0948
     23 C19         2.7589    0.7790    1.1469 C.2       1 <0>        -0.1192
     24 C20         3.7499    1.8582    1.1312 C.ar      1 <0>        -0.0373
     25 C21         3.6331    2.9362    2.0170 C.ar      1 <0>        -0.0973
     26 C22         4.5691    3.9468    1.9966 C.ar      1 <0>        -0.1203
     27 C23         5.6288    3.9055    1.1037 C.ar      1 <0>        -0.1153
     28 C24         5.7619    2.8518    0.2217 C.ar      1 <0>        -0.1087
     29 C25         4.8323    1.8163    0.2274 C.ar      1 <0>        -0.0390
     30 C26         4.9749    0.6811   -0.7129 C.ar      1 <0>        -0.0444
     31 C27         4.8965   -0.6304   -0.2444 C.ar      1 <0>        -0.1042
     32 C28         5.0297   -1.6838   -1.1255 C.ar      1 <0>        -0.1167
     33 C29         5.2406   -1.4413   -2.4712 C.ar      1 <0>        -0.1154
     34 C30         5.3192   -0.1428   -2.9419 C.ar      1 <0>        -0.1176
     35 C31         5.1824    0.9191   -2.0716 C.ar      1 <0>        -0.1053
     36 C32        -0.8596   -2.4837   -2.6124 C.3       1 <0>        -0.1400
     37 C33         1.3933   -2.7460   -1.5878 C.3       1 <0>        -0.1308
     38 H1          1.1467    1.8728   -0.2014 H         1 <0>         0.0743
     39 H2         -0.3254    1.8554   -1.2017 H         1 <0>         0.0636
     40 H3         -0.4550    1.9505    0.5710 H         1 <0>         0.0606
     41 H4          0.2498   -0.0768   -2.2204 H         1 <0>         0.1122
     42 H5         -1.6140   -2.4338   -0.1701 H         1 <0>         0.3476
     43 H6          1.0980   -2.4881    0.9974 H         1 <0>         0.0941
     44 H7         -1.0607   -0.4554    1.5023 H         1 <0>         0.0874
     45 H8         -0.7111   -2.4462    4.3436 H         1 <0>         0.1389
     46 H9         -1.2341   -3.5766    2.2450 H         1 <0>         0.1373
     47 H10         3.5285    1.9384    5.5665 H         1 <0>         0.1452
     48 H11         3.5432    0.6153    7.6347 H         1 <0>         0.1464
     49 H12         2.4620   -3.8318    6.1160 H         1 <0>         0.0521
     50 H13         0.9359   -4.5947    5.6087 H         1 <0>         0.0979
     51 H14         1.8874   -3.6456    4.4416 H         1 <0>         0.0465
     52 H15         1.5881   -1.4206    8.6297 H         1 <0>         0.3928
     53 H16         2.6719    0.1134    0.3009 H         1 <0>         0.1462
     54 H17         2.8101    2.9755    2.7152 H         1 <0>         0.1393
     55 H18         4.4764    4.7774    2.6808 H         1 <0>         0.1231
     56 H19         6.3558    4.7041    1.0979 H         1 <0>         0.1233
     57 H20         6.5906    2.8291   -0.4705 H         1 <0>         0.1238
     58 H21         4.7323   -0.8210    0.8059 H         1 <0>         0.1202
     59 H22         4.9696   -2.6997   -0.7639 H         1 <0>         0.1220
     60 H23         5.3445   -2.2692   -3.1569 H         1 <0>         0.1219
     61 H24         5.4840    0.0401   -3.9935 H         1 <0>         0.1234
     62 H25         5.2399    1.9323   -2.4409 H         1 <0>         0.1227
     63 H26        -0.3976   -2.0915   -3.5184 H         1 <0>         0.0641
     64 H27        -0.9505   -3.5670   -2.6905 H         1 <0>         0.0675
     65 H28        -1.8493   -2.0439   -2.4895 H         1 <0>         0.0553
     66 H29         2.0247   -2.4851   -0.7385 H         1 <0>         0.0529
     67 H30         1.3023   -3.8302   -1.6534 H         1 <0>         0.0656
     68 H31         1.8411   -2.3628   -2.5048 H         1 <0>         0.0622
@<TRIPOS>BOND
     1    1    2 1
     2    1   38 1
     3    1   39 1
     4    1   40 1
     5    2    7 1
     6    2    3 2
     7    3    4 1
     8    3   41 1
     9    4    5 1
    10    4   36 1
    11    4   37 1
    12    5    6 1
    13    5   42 1
    14    6   11 1
    15    6    7 1
    16    6   43 1
    17    7    8 1
    18    7   44 1
    19    8   22 1
    20    8    9 2
    21    9   10 1
    22    9   12 1
    23   10   11 2
    24   10   45 1
    25   11   46 1
    26   12   17 ar
    27   12   13 ar
    28   13   14 ar
    29   13   21 1
    30   14   15 ar
    31   14   47 1
    32   15   16 ar
    33   15   48 1
    34   16   17 ar
    35   16   20 1
    36   17   18 1
    37   18   19 1
    38   19   49 1
    39   19   50 1
    40   19   51 1
    41   20   52 1
    42   21   22 1
    43   22   23 2
    44   23   24 1
    45   23   53 1
    46   24   29 ar
    47   24   25 ar
    48   25   26 ar
    49   25   54 1
    50   26   27 ar
    51   26   55 1
    52   27   28 ar
    53   27   56 1
    54   28   29 ar
    55   28   57 1
    56   29   30 1
    57   30   35 ar
    58   30   31 ar
    59   31   32 ar
    60   31   58 1
    61   32   33 ar
    62   32   59 1
    63   33   34 ar
    64   33   60 1
    65   34   35 ar
    66   34   61 1
    67   35   62 1
    68   36   63 1
    69   36   64 1
    70   36   65 1
    71   37   66 1
    72   37   67 1
    73   37   68 1
@<TRIPOS>MOLECULE
CHEMBL231757__7
   69    74     0     0     0
SMALL
USER_CHARGES

@<TRIPOS>ATOM
      1 C1          0.1136    1.5313   -0.2602 C.3       1 <0>        -0.1320
      2 C2          0.0780    0.0212   -0.1824 C.2       1 <0>        -0.0717
      3 C3          0.1242   -0.6384   -1.3116 C.2       1 <0>        -0.1879
      4 C4          0.0085   -2.1304   -1.4001 C.3       1 <0>         0.1012
      5 N1         -0.6462   -2.6630   -0.1963 N.4       1 <0>        -0.4873
      6 C5          0.0512   -2.1969    0.9892 C.3       1 <0>         0.0519
      7 C6         -0.0336   -0.6685    1.1239 C.3       1 <0>        -0.0088
      8 C7          0.9028   -0.3027    2.2245 C.2       1 <0>        -0.0925
      9 C8          0.7545   -1.0426    3.3959 C.2       1 <0>        -0.0187
     10 C9         -0.2017   -2.1569    3.4149 C.2       1 <0>        -0.0369
     11 C10        -0.5460   -2.7529    2.2630 C.2       1 <0>        -0.2112
     12 C11         1.5577   -0.6490    4.5632 C.ar      1 <0>        -0.1356
     13 C12         2.2798    0.5583    4.5032 C.ar      1 <0>         0.1327
     14 C13         3.0195    0.9827    5.5912 C.ar      1 <0>        -0.1249
     15 C14         3.0689    0.2137    6.7393 C.ar      1 <0>        -0.0779
     16 C15         2.3837   -0.9885    6.8039 C.ar      1 <0>         0.0692
     17 C16         1.6311   -1.4281    5.7183 C.ar      1 <0>         0.1262
     18 O1          0.9944   -2.6260    5.8016 O.3       1 <0>        -0.3283
     19 C17         1.7260   -3.7800    5.3828 C.3       1 <0>         0.0375
     20 O2          2.4462   -1.7471    7.9323 O.3       1 <0>        -0.4853
     21 O3          2.2646    1.2891    3.3564 O.3       1 <0>        -0.2223
     22 C18         1.9537    0.6137    2.2142 C.2       1 <0>         0.0726
     23 C19         2.7605    0.7883    1.1366 C.2       1 <0>        -0.0922
     24 C20         3.7404    1.8777    1.1239 C.ar      1 <0>        -0.0564
     25 C21         3.6131    2.9514    2.0133 C.ar      1 <0>        -0.0895
     26 C22         4.5386    3.9717    1.9958 C.ar      1 <0>        -0.1196
     27 C23         5.5981    3.9442    1.1022 C.ar      1 <0>        -0.1016
     28 C24         5.7416    2.8949    0.2166 C.ar      1 <0>        -0.1091
     29 C25         4.8226    1.8499    0.2194 C.ar      1 <0>        -0.0337
     30 C26         4.9763    0.7193   -0.7248 C.ar      1 <0>        -0.0447
     31 C27         4.9117   -0.5945   -0.2606 C.ar      1 <0>        -0.1100
     32 C28         5.0552   -1.6435   -1.1452 C.ar      1 <0>        -0.1231
     33 C29         5.2628   -1.3944   -2.4902 C.ar      1 <0>        -0.1162
     34 C30         5.3278   -0.0936   -2.9567 C.ar      1 <0>        -0.1141
     35 C31         5.1806    0.9639   -2.0828 C.ar      1 <0>        -0.1020
     36 C32        -0.8507   -2.4836   -2.6200 C.3       1 <0>        -0.1731
     37 C33         1.3911   -2.7491   -1.5771 C.3       1 <0>        -0.1712
     38 H1          1.1467    1.8739   -0.2020 H         1 <0>         0.0901
     39 H2         -0.3246    1.8569   -1.2037 H         1 <0>         0.0801
     40 H3         -0.4558    1.9514    0.5689 H         1 <0>         0.0758
     41 H4          0.2497   -0.0788   -2.2234 H         1 <0>         0.1540
     42 H5         -1.6097   -2.3507   -0.1757 H         1 <0>         0.4301
     43 H6          1.0973   -2.4884    0.9692 H         1 <0>         0.1476
     44 H7         -1.0581   -0.4574    1.5057 H         1 <0>         0.1194
     45 H8         -0.6486   -2.4903    4.3397 H         1 <0>         0.1598
     46 H9         -1.2180   -3.5894    2.2354 H         1 <0>         0.1558
     47 H10         3.5614    1.9161    5.5478 H         1 <0>         0.1505
     48 H11         3.6423    0.5529    7.5883 H         1 <0>         0.1526
     49 H12         1.1037   -4.6671    5.5004 H         1 <0>         0.1010
     50 H13         2.0088   -3.6707    4.3358 H         1 <0>         0.0419
     51 H14         2.6235   -3.8823    5.9928 H         1 <0>         0.0586
     52 H15         1.7571   -1.5459    8.5801 H         1 <0>         0.3983
     53 H16         2.6803    0.1244    0.2886 H         1 <0>         0.1437
     54 H17         2.7902    2.9800    2.7121 H         1 <0>         0.1407
     55 H18         4.4378    4.7990    2.6827 H         1 <0>         0.1279
     56 H19         6.3169    4.7503    1.0985 H         1 <0>         0.1287
     57 H20         6.5700    2.8830   -0.4762 H         1 <0>         0.1276
     58 H21         4.7501   -0.7902    0.7892 H         1 <0>         0.1196
     59 H22         5.0057   -2.6612   -0.7870 H         1 <0>         0.1209
     60 H23         5.3749   -2.2189   -3.1788 H         1 <0>         0.1235
     61 H24         5.4901    0.0945   -4.0078 H         1 <0>         0.1268
     62 H25         5.2275    1.9789   -2.4488 H         1 <0>         0.1262
     63 H26        -0.3786   -2.0942   -3.5219 H         1 <0>         0.1092
     64 H27        -0.9438   -3.5669   -2.6974 H         1 <0>         0.0850
     65 H28        -1.8404   -2.0410   -2.5077 H         1 <0>         0.0838
     66 H29         2.0181   -2.4873   -0.7248 H         1 <0>         0.0789
     67 H30         1.2985   -3.8333   -1.6406 H         1 <0>         0.0853
     68 H31         1.8448   -2.3690   -2.4924 H         1 <0>         0.1107
     69 H32        -0.6355   -3.6749   -0.2296 H         1 <0>         0.4324
@<TRIPOS>BOND
     1    1    2 1
     2    1   38 1
     3    1   39 1
     4    1   40 1
     5    2    7 1
     6    2    3 2
     7    3    4 1
     8    3   41 1
     9    4    5 1
    10    4   36 1
    11    4   37 1
    12    5    6 1
    13    5   42 1
    14    5   69 1
    15    6   11 1
    16    6    7 1
    17    6   43 1
    18    7    8 1
    19    7   44 1
    20    8   22 1
    21    8    9 2
    22    9   10 1
    23    9   12 1
    24   10   11 2
    25   10   45 1
    26   11   46 1
    27   12   17 ar
    28   12   13 ar
    29   13   14 ar
    30   13   21 1
    31   14   15 ar
    32   14   47 1
    33   15   16 ar
    34   15   48 1
    35   16   17 ar
    36   16   20 1
    37   17   18 1
    38   18   19 1
    39   19   49 1
    40   19   50 1
    41   19   51 1
    42   20   52 1
    43   21   22 1
    44   22   23 2
    45   23   24 1
    46   23   53 1
    47   24   29 ar
    48   24   25 ar
    49   25   26 ar
    50   25   54 1
    51   26   27 ar
    52   26   55 1
    53   27   28 ar
    54   27   56 1
    55   28   29 ar
    56   28   57 1
    57   29   30 1
    58   30   35 ar
    59   30   31 ar
    60   31   32 ar
    61   31   58 1
    62   32   33 ar
    63   32   59 1
    64   33   34 ar
    65   33   60 1
    66   34   35 ar
    67   34   61 1
    68   35   62 1
    69   36   63 1
    70   36   64 1
    71   36   65 1
    72   37   66 1
    73   37   67 1
    74   37   68 1
@<TRIPOS>MOLECULE
CHEMBL392500
   55    57     0     0     0
SMALL
USER_CHARGES

@<TRIPOS>ATOM
      1 C1          1.0357   -0.5219    1.2573 C.3       1 <0>        -0.1525
      2 C2          0.0096   -0.7927    0.1552 C.3       1 <0>        -0.0150
      3 C3          0.3929   -2.0693   -0.5959 C.3       1 <0>        -0.1358
      4 C4         -1.3764   -0.9651    0.7799 C.3       1 <0>        -0.1536
      5 C5         -1.5187   -0.0196    1.9743 C.3       1 <0>         0.1058
      6 C6         -2.8623   -0.2667    2.6632 C.3       1 <0>        -0.1232
      7 C7         -3.0029    0.6654    3.8390 C.ar      1 <0>        -0.0395
      8 C8         -2.3773    0.3702    5.0113 C.ar      1 <0>        -0.1050
      9 C9         -2.4763    1.1962    6.1226 C.ar      1 <0>        -0.0455
     10 C10        -3.2269    2.3639    6.0703 C.ar      1 <0>        -0.0263
     11 C11        -3.9076    2.7027    4.8225 C.ar      1 <0>        -0.0141
     12 C12        -3.7736    1.8330    3.7124 C.ar      1 <0>        -0.0320
     13 C13        -4.4211    2.1545    2.5068 C.ar      1 <0>        -0.1102
     14 C14        -5.1593    3.2953    2.4228 C.ar      1 <0>        -0.1078
     15 C15        -5.2837    4.1517    3.5144 C.ar      1 <0>        -0.1007
     16 C16        -4.6803    3.8641    4.7024 C.ar      1 <0>        -0.1112
     17 C17        -3.3316    3.2175    7.2153 C.1       1 <0>         0.2547
     18 N1         -3.4148    3.8946    8.1237 N.1       1 <0>        -0.4109
     19 C18        -1.4537    1.4297    1.4881 C.3       1 <0>         0.4610
     20 F1         -2.4273    1.6357    0.5047 F         1 <0>        -0.1721
     21 F2         -1.6872    2.2933    2.5636 F         1 <0>        -0.1658
     22 F3         -0.1873    1.6851    0.9513 F         1 <0>        -0.1531
     23 O1         -0.4573   -0.2592    2.9006 O.3       1 <0>        -0.5214
     24 C19        -0.0134    0.3679   -0.8059 C.ar      1 <0>        -0.0608
     25 C20        -1.1986    0.7419   -1.4097 C.ar      1 <0>        -0.1372
     26 C21        -1.2203    1.8082   -2.2922 C.ar      1 <0>         0.0704
     27 C22        -0.0543    2.5012   -2.5715 C.ar      1 <0>        -0.1238
     28 C23         1.1319    2.1295   -1.9693 C.ar      1 <0>        -0.1766
     29 C24         1.1539    1.0646   -1.0803 C.ar      1 <0>         0.1270
     30 O2          2.3196    0.7013   -0.4826 O.3       1 <0>        -0.2938
     31 C25         3.4826    1.4635   -0.8120 C.3       1 <0>         0.0152
     32 F4         -2.3798    2.1728   -2.8819 F         1 <0>        -0.1404
     33 H1          2.0409   -0.5786    0.8398 H         1 <0>         0.0672
     34 H2          0.8699    0.4726    1.6717 H         1 <0>         0.0930
     35 H3          0.9271   -1.2667    2.0458 H         1 <0>         0.0573
     36 H4          0.3249   -2.9224    0.0792 H         1 <0>         0.0612
     37 H5         -0.2872   -2.2151   -1.4352 H         1 <0>         0.0548
     38 H6          1.4139   -1.9800   -0.9669 H         1 <0>         0.0632
     39 H7         -2.1406   -0.7316    0.0386 H         1 <0>         0.0935
     40 H8         -1.4982   -1.9950    1.1153 H         1 <0>         0.0982
     41 H9         -3.6719   -0.0846    1.9564 H         1 <0>         0.1000
     42 H10        -2.9082   -1.2989    3.0102 H         1 <0>         0.1085
     43 H11        -1.7876   -0.5321    5.0788 H         1 <0>         0.1339
     44 H12        -1.9657    0.9284    7.0358 H         1 <0>         0.1368
     45 H13        -4.3330    1.5004    1.6520 H         1 <0>         0.1319
     46 H14        -5.6559    3.5403    1.4955 H         1 <0>         0.1277
     47 H15        -5.8747    5.0509    3.4212 H         1 <0>         0.1279
     48 H16        -4.7857    4.5356    5.5417 H         1 <0>         0.1248
     49 H17        -0.4369   -1.1603    3.2509 H         1 <0>         0.3892
     50 H18        -2.1085    0.2018   -1.1933 H         1 <0>         0.1439
     51 H19        -0.0725    3.3324   -3.2607 H         1 <0>         0.1352
     52 H20         2.0411    2.6699   -2.1875 H         1 <0>         0.1362
     53 H21         3.6696    1.3962   -1.8837 H         1 <0>         0.0541
     54 H22         3.3242    2.5059   -0.5355 H         1 <0>         0.0551
     55 H23         4.3411    1.0697   -0.2679 H         1 <0>         0.1004
@<TRIPOS>BOND
     1    1    2 1
     2    1   33 1
     3    1   34 1
     4    1   35 1
     5    2    3 1
     6    2    4 1
     7    2   24 1
     8    3   36 1
     9    3   37 1
    10    3   38 1
    11    4    5 1
    12    4   39 1
    13    4   40 1
    14    5    6 1
    15    5   19 1
    16    5   23 1
    17    6    7 1
    18    6   41 1
    19    6   42 1
    20    7   12 ar
    21    7    8 ar
    22    8    9 ar
    23    8   43 1
    24    9   10 ar
    25    9   44 1
    26   10   11 ar
    27   10   17 1
    28   11   16 ar
    29   11   12 ar
    30   12   13 ar
    31   13   14 ar
    32   13   45 1
    33   14   15 ar
    34   14   46 1
    35   15   16 ar
    36   15   47 1
    37   16   48 1
    38   17   18 3
    39   19   20 1
    40   19   21 1
    41   19   22 1
    42   23   49 1
    43   24   29 ar
    44   24   25 ar
    45   25   26 ar
    46   25   50 1
    47   26   27 ar
    48   26   32 1
    49   27   28 ar
    50   27   51 1
    51   28   29 ar
    52   28   52 1
    53   29   30 1
    54   30   31 1
    55   31   53 1
    56   31   54 1
    57   31   55 1
@<TRIPOS>MOLECULE
CHEMBL392500__1
   55    57     0     0     0
SMALL
USER_CHARGES

@<TRIPOS>ATOM
      1 C1          0.1895    0.4791   -1.5640 C.3       1 <0>        -0.1374
      2 C2         -0.1032    0.6014   -0.0672 C.3       1 <0>        -0.0129
      3 C3         -0.1630    2.0800    0.3216 C.3       1 <0>        -0.1575
      4 C4         -1.4454   -0.0630    0.2459 C.3       1 <0>        -0.1576
      5 C5         -2.0818    0.6195    1.4584 C.3       1 <0>         0.1040
      6 C6         -3.4712    0.0284    1.7054 C.3       1 <0>        -0.1219
      7 C7         -4.0980    0.7006    2.8997 C.ar      1 <0>        -0.0422
      8 C8         -3.9850    0.1299    4.1303 C.ar      1 <0>        -0.1085
      9 C9         -4.5447    0.7096    5.2607 C.ar      1 <0>        -0.0438
     10 C10        -5.2461    1.9051    5.1680 C.ar      1 <0>        -0.0249
     11 C11        -5.3806    2.5374    3.8575 C.ar      1 <0>        -0.0129
     12 C12        -4.7881    1.9128    2.7326 C.ar      1 <0>        -0.0296
     13 C13        -4.9085    2.5174    1.4694 C.ar      1 <0>        -0.0974
     14 C14        -5.5851    3.6925    1.3474 C.ar      1 <0>        -0.1111
     15 C15        -6.1611    4.3075    2.4567 C.ar      1 <0>        -0.1004
     16 C16        -6.0749    3.7422    3.6941 C.ar      1 <0>        -0.1102
     17 C17        -5.8254    2.5050    6.3321 C.1       1 <0>         0.2543
     18 N1         -6.2850    2.9809    7.2556 N.1       1 <0>        -0.4096
     19 C18        -1.2041    0.3916    2.6908 C.3       1 <0>         0.4611
     20 F1          0.0819    0.8844    2.4450 F         1 <0>        -0.1506
     21 F2         -1.7580    1.0601    3.7878 F         1 <0>        -0.1660
     22 F3         -1.1338   -0.9782    2.9663 F         1 <0>        -0.1723
     23 O1         -2.1981    2.0217    1.2092 O.3       1 <0>        -0.5184
     24 C19         0.9894   -0.0801    0.7157 C.ar      1 <0>        -0.0479
     25 C20         0.7139   -1.2311    1.4287 C.ar      1 <0>        -0.1585
     26 C21         1.7174   -1.8576    2.1475 C.ar      1 <0>         0.0742
     27 C22         2.9983   -1.3317    2.1535 C.ar      1 <0>        -0.1271
     28 C23         3.2765   -0.1812    1.4416 C.ar      1 <0>        -0.1715
     29 C24         2.2732    0.4446    0.7161 C.ar      1 <0>         0.1172
     30 O2          2.5469    1.5738    0.0105 O.3       1 <0>        -0.3016
     31 C25         3.8907    2.0577    0.0563 C.3       1 <0>         0.0210
     32 F4          1.4466   -2.9830    2.8443 F         1 <0>        -0.1398
     33 H1          1.1000    1.0290   -1.8022 H         1 <0>         0.0696
     34 H2          0.3209   -0.5712   -1.8239 H         1 <0>         0.0533
     35 H3         -0.6438    0.8925   -2.1321 H         1 <0>         0.0596
     36 H4         -0.9851    2.5619   -0.2076 H         1 <0>         0.0580
     37 H5         -0.3224    2.1668    1.3964 H         1 <0>         0.0956
     38 H6          0.7757    2.5645    0.0531 H         1 <0>         0.0607
     39 H7         -2.1078    0.0332   -0.6144 H         1 <0>         0.0988
     40 H8         -1.2858   -1.1187    0.4653 H         1 <0>         0.0960
     41 H9         -4.0964    0.1908    0.8274 H         1 <0>         0.1066
     42 H10        -3.3825   -1.0412    1.8955 H         1 <0>         0.1030
     43 H11        -3.4450   -0.8001    4.2300 H         1 <0>         0.1321
     44 H12        -4.4343    0.2267    6.2204 H         1 <0>         0.1374
     45 H13        -4.4666    2.0525    0.6005 H         1 <0>         0.1257
     46 H14        -5.6763    4.1551    0.3758 H         1 <0>         0.1278
     47 H15        -6.6919    5.2398    2.3329 H         1 <0>         0.1274
     48 H16        -6.5272    4.2283    4.5459 H         1 <0>         0.1245
     49 H17        -2.7421    2.2408    0.4403 H         1 <0>         0.3849
     50 H18        -0.2849   -1.6420    1.4254 H         1 <0>         0.1557
     51 H19         3.7801   -1.8211    2.7153 H         1 <0>         0.1355
     52 H20         4.2756    0.2290    1.4467 H         1 <0>         0.1365
     53 H21         4.1603    2.2843    1.0878 H         1 <0>         0.0554
     54 H22         4.5646    1.2963   -0.3365 H         1 <0>         0.0549
     55 H23         3.9722    2.9615   -0.5475 H         1 <0>         0.1010
@<TRIPOS>BOND
     1    1    2 1
     2    1   33 1
     3    1   34 1
     4    1   35 1
     5    2    3 1
     6    2    4 1
     7    2   24 1
     8    3   36 1
     9    3   37 1
    10    3   38 1
    11    4    5 1
    12    4   39 1
    13    4   40 1
    14    5    6 1
    15    5   19 1
    16    5   23 1
    17    6    7 1
    18    6   41 1
    19    6   42 1
    20    7   12 ar
    21    7    8 ar
    22    8    9 ar
    23    8   43 1
    24    9   10 ar
    25    9   44 1
    26   10   11 ar
    27   10   17 1
    28   11   16 ar
    29   11   12 ar
    30   12   13 ar
    31   13   14 ar
    32   13   45 1
    33   14   15 ar
    34   14   46 1
    35   15   16 ar
    36   15   47 1
    37   16   48 1
    38   17   18 3
    39   19   20 1
    40   19   21 1
    41   19   22 1
    42   23   49 1
    43   24   29 ar
    44   24   25 ar
    45   25   26 ar
    46   25   50 1
    47   26   27 ar
    48   26   32 1
    49   27   28 ar
    50   27   51 1
    51   28   29 ar
    52   28   52 1
    53   29   30 1
    54   30   31 1
    55   31   53 1
    56   31   54 1
    57   31   55 1
@<TRIPOS>MOLECULE
CHEMBL584522
   55    59     0     0     0
SMALL
USER_CHARGES

@<TRIPOS>ATOM
      1 C1          1.3731    0.9883   -0.1283 C.3       1 <0>        -0.1858
      2 C2          1.0097   -0.4891   -0.2896 C.3       1 <0>        -0.0264
      3 C3         -0.4147   -0.6916    0.2497 C.3       1 <0>         0.0417
      4 N1         -0.5862   -1.6210    1.3739 N.pl3     1 <0>        -0.4045
      5 C4         -1.6704   -1.9887    2.0891 C.cat     1 <0>         0.2888
      6 N2         -1.3149   -2.8437    3.0077 N.pl3     1 <0>        -0.4656
      7 C5          0.0092   -3.0699    2.9256 C.2       1 <0>         0.0855
      8 C6          0.4962   -2.2989    1.8798 C.2       1 <0>         0.1112
      9 C7          1.8414   -2.1497    1.3229 C.2       1 <0>        -0.1382
     10 C8          2.1139   -1.3156    0.3337 C.2       1 <0>        -0.0252
     11 C9          3.5086   -1.2046   -0.2320 C.3       1 <0>        -0.0897
     12 C10         3.4360   -1.4545   -1.7435 C.3       1 <0>        -0.1178
     13 C11         2.3978   -0.5191   -2.3650 C.3       1 <0>        -0.1314
     14 C12         1.0131   -0.8122   -1.7841 C.3       1 <0>        -0.1035
     15 H1          0.7738   -1.8657   -1.9288 H         1 <0>         0.0893
     16 C13        -0.0315    0.0506   -2.4950 C.3       1 <0>         0.1668
     17 C14        -1.4318   -0.3661   -2.0407 C.3       1 <0>        -0.1770
     18 C15         0.2006    1.5224   -2.1473 C.3       1 <0>        -0.2207
     19 C16        -0.9806    2.3074   -1.5733 C.3       1 <0>        -0.1933
     20 C17        -0.5099    2.5714   -3.0050 C.3       1 <0>        -0.1590
     21 O1          0.0840   -0.1290   -3.9079 O.3       1 <0>        -0.5458
     22 C18         0.8003   -3.9741    3.7916 C.ar      1 <0>        -0.0751
     23 C19         2.0216   -3.5500    4.3154 C.ar      1 <0>        -0.0512
     24 C20         2.7547   -4.3960    5.1215 C.ar      1 <0>        -0.1476
     25 C21         2.2800   -5.6653    5.4107 C.ar      1 <0>         0.1367
     26 C22         1.0677   -6.0915    4.8924 C.ar      1 <0>        -0.1474
     27 C23         0.3239   -5.2506    4.0907 C.ar      1 <0>        -0.0638
     28 F1          3.0019   -6.4903    6.2002 F         1 <0>        -0.1229
     29 H2          2.1601    1.2483   -0.8362 H         1 <0>         0.0898
     30 H3          0.4933    1.6021   -0.3217 H         1 <0>         0.1050
     31 H4          1.7247    1.1672    0.8878 H         1 <0>         0.0595
     32 H5         -0.7964    0.2814    0.5592 H         1 <0>         0.1187
     33 H6         -1.0368   -1.0438   -0.5731 H         1 <0>         0.1667
     34 H7         -2.6760   -1.6303    1.9262 H         1 <0>         0.2626
     35 H8          2.6468   -2.7287    1.7502 H         1 <0>         0.1526
     36 H9          3.9034   -0.2064   -0.0431 H         1 <0>         0.0939
     37 H10         4.1541   -1.9498    0.2330 H         1 <0>         0.0889
     38 H11         4.4114   -1.2631   -2.1907 H         1 <0>         0.0837
     39 H12         3.1487   -2.4897   -1.9273 H         1 <0>         0.0713
     40 H13         2.6683    0.5148   -2.1507 H         1 <0>         0.0805
     41 H14         2.3762   -0.6690   -3.4444 H         1 <0>         0.0812
     42 H15        -1.6658    0.1192   -1.0932 H         1 <0>         0.0881
     43 H16        -2.1619   -0.0662   -2.7925 H         1 <0>         0.0863
     44 H17        -1.4654   -1.4480   -1.9129 H         1 <0>         0.0725
     45 H18         1.1957    1.7663   -1.7755 H         1 <0>         0.1403
     46 H19        -1.9230    1.7754   -1.4435 H         1 <0>         0.1013
     47 H20        -0.7627    3.0680   -0.8236 H         1 <0>         0.0996
     48 H21         0.0177    3.5057   -3.1971 H         1 <0>         0.0983
     49 H22        -1.1426    2.2131   -3.8170 H         1 <0>         0.1018
     50 H23         0.9688    0.0479   -4.2559 H         1 <0>         0.3820
     51 H24         2.3927   -2.5612    4.0900 H         1 <0>         0.1426
     52 H25         3.7004   -4.0686    5.5275 H         1 <0>         0.1518
     53 H26         0.7023   -7.0819    5.1201 H         1 <0>         0.1507
     54 H27        -0.6232   -5.5819    3.6911 H         1 <0>         0.1373
     55 H28        -1.9134   -3.2536    3.6518 H         1 <0>         0.4648
@<TRIPOS>BOND
     1    1    2 1
     2    1   29 1
     3    1   30 1
     4    1   31 1
     5    2   10 1
     6    2   14 1
     7    2    3 1
     8    3    4 1
     9    3   32 1
    10    3   33 1
    11    4    8 1
    12    4    5 1
    13    5    6 2
    14    5   34 1
    15    6    7 1
    16    6   55 1
    17    7    8 2
    18    7   22 1
    19    8    9 1
    20    9   10 2
    21    9   35 1
    22   10   11 1
    23   11   12 1
    24   11   36 1
    25   11   37 1
    26   12   13 1
    27   12   38 1
    28   12   39 1
    29   13   14 1
    30   13   40 1
    31   13   41 1
    32   14   15 1
    33   14   16 1
    34   16   17 1
    35   16   18 1
    36   16   21 1
    37   17   42 1
    38   17   43 1
    39   17   44 1
    40   18   20 1
    41   18   19 1
    42   18   45 1
    43   19   20 1
    44   19   46 1
    45   19   47 1
    46   20   48 1
    47   20   49 1
    48   21   50 1
    49   22   27 ar
    50   22   23 ar
    51   23   24 ar
    52   23   51 1
    53   24   25 ar
    54   24   52 1
    55   25   26 ar
    56   25   28 1
    57   26   27 ar
    58   26   53 1
    59   27   54 1
@<TRIPOS>MOLECULE
CHEMBL584522__1
   54    58     0     0     0
SMALL
USER_CHARGES

@<TRIPOS>ATOM
      1 C1          1.3731    0.9883   -0.1283 C.3       1 <0>        -0.1791
      2 C2          1.0097   -0.4891   -0.2896 C.3       1 <0>        -0.0115
      3 C3         -0.4147   -0.6916    0.2497 C.3       1 <0>         0.0558
      4 N1         -0.5862   -1.6210    1.3739 N.pl3     1 <0>        -0.4482
      5 C4         -1.6704   -1.9887    2.0891 C.2       1 <0>         0.1980
      6 N2         -1.3149   -2.8437    3.0077 N.2       1 <0>        -0.4728
      7 C5          0.0092   -3.0699    2.9256 C.2       1 <0>         0.0553
      8 C6          0.4962   -2.2989    1.8798 C.2       1 <0>         0.0207
      9 C7          1.8414   -2.1497    1.3229 C.2       1 <0>        -0.0876
     10 C8          2.1139   -1.3156    0.3337 C.2       1 <0>        -0.0985
     11 C9          3.5086   -1.2046   -0.2320 C.3       1 <0>        -0.0774
     12 C10         3.4360   -1.4545   -1.7435 C.3       1 <0>        -0.1152
     13 C11         2.3978   -0.5191   -2.3650 C.3       1 <0>        -0.1262
     14 C12         1.0131   -0.8122   -1.7841 C.3       1 <0>        -0.1010
     15 H1          0.7738   -1.8657   -1.9288 H         1 <0>         0.0840
     16 C13        -0.0315    0.0506   -2.4950 C.3       1 <0>         0.1676
     17 C14        -1.4318   -0.3661   -2.0407 C.3       1 <0>        -0.1705
     18 C15         0.2006    1.5224   -2.1473 C.3       1 <0>        -0.2108
     19 C16        -0.9806    2.3074   -1.5733 C.3       1 <0>        -0.1898
     20 C17        -0.5099    2.5714   -3.0050 C.3       1 <0>        -0.1659
     21 O1          0.0840   -0.1290   -3.9079 O.3       1 <0>        -0.5505
     22 C18         0.8003   -3.9741    3.7916 C.ar      1 <0>        -0.0071
     23 C19         1.8804   -4.6812    3.2632 C.ar      1 <0>        -0.0829
     24 C20         2.6141   -5.5222    4.0740 C.ar      1 <0>        -0.1512
     25 C21         2.2794   -5.6656    5.4110 C.ar      1 <0>         0.0965
     26 C22         1.2071   -4.9657    5.9404 C.ar      1 <0>        -0.1515
     27 C23         0.4713   -4.1171    5.1396 C.ar      1 <0>        -0.0653
     28 F1          3.0008   -6.4908    6.2008 F         1 <0>        -0.1398
     29 H2          2.1601    1.2483   -0.8362 H         1 <0>         0.0778
     30 H3          0.4933    1.6021   -0.3217 H         1 <0>         0.0960
     31 H4          1.7247    1.1672    0.8878 H         1 <0>         0.0535
     32 H5         -0.7964    0.2814    0.5592 H         1 <0>         0.0878
     33 H6         -1.0368   -1.0438   -0.5731 H         1 <0>         0.1381
     34 H7         -2.6760   -1.6303    1.9262 H         1 <0>         0.2085
     35 H8          2.6468   -2.7287    1.7502 H         1 <0>         0.1315
     36 H9          3.9034   -0.2064   -0.0431 H         1 <0>         0.0789
     37 H10         4.1541   -1.9498    0.2330 H         1 <0>         0.0774
     38 H11         4.4114   -1.2631   -2.1907 H         1 <0>         0.0723
     39 H12         3.1487   -2.4897   -1.9273 H         1 <0>         0.0670
     40 H13         2.6683    0.5148   -2.1507 H         1 <0>         0.0750
     41 H14         2.3762   -0.6690   -3.4444 H         1 <0>         0.0713
     42 H15        -1.6658    0.1192   -1.0932 H         1 <0>         0.0919
     43 H16        -2.1619   -0.0662   -2.7925 H         1 <0>         0.0743
     44 H17        -1.4654   -1.4480   -1.9129 H         1 <0>         0.0719
     45 H18         1.1957    1.7663   -1.7755 H         1 <0>         0.1391
     46 H19        -1.9230    1.7754   -1.4435 H         1 <0>         0.1018
     47 H20        -0.7627    3.0680   -0.8236 H         1 <0>         0.0969
     48 H21         0.0177    3.5057   -3.1971 H         1 <0>         0.0935
     49 H22        -1.1426    2.2131   -3.8170 H         1 <0>         0.0983
     50 H23         0.9688    0.0479   -4.2559 H         1 <0>         0.3767
     51 H24         2.1416   -4.5707    2.2211 H         1 <0>         0.1332
     52 H25         3.4506   -6.0702    3.6659 H         1 <0>         0.1375
     53 H26         0.9498   -5.0813    6.9829 H         1 <0>         0.1377
     54 H27        -0.3614   -3.5684    5.5543 H         1 <0>         0.1371
@<TRIPOS>BOND
     1    1    2 1
     2    1   29 1
     3    1   30 1
     4    1   31 1
     5    2   10 1
     6    2   14 1
     7    2    3 1
     8    3    4 1
     9    3   32 1
    10    3   33 1
    11    4    8 1
    12    4    5 1
    13    5    6 2
    14    5   34 1
    15    6    7 1
    16    7    8 2
    17    7   22 1
    18    8    9 1
    19    9   10 2
    20    9   35 1
    21   10   11 1
    22   11   12 1
    23   11   36 1
    24   11   37 1
    25   12   13 1
    26   12   38 1
    27   12   39 1
    28   13   14 1
    29   13   40 1
    30   13   41 1
    31   14   15 1
    32   14   16 1
    33   16   17 1
    34   16   18 1
    35   16   21 1
    36   17   42 1
    37   17   43 1
    38   17   44 1
    39   18   20 1
    40   18   19 1
    41   18   45 1
    42   19   20 1
    43   19   46 1
    44   19   47 1
    45   20   48 1
    46   20   49 1
    47   21   50 1
    48   22   27 ar
    49   22   23 ar
    50   23   24 ar
    51   23   51 1
    52   24   25 ar
    53   24   52 1
    54   25   26 ar
    55   25   28 1
    56   26   27 ar
    57   26   53 1
    58   27   54 1
@<TRIPOS>MOLECULE
CHEMBL32603
   52    56     0     0     0
SMALL
USER_CHARGES

@<TRIPOS>ATOM
      1 C1          0.4930    1.4947   -0.1912 C.3       1 <0>        -0.1367
      2 C2          0.7413   -0.0109   -0.3588 C.3       1 <0>        -0.0863
      3 C3         -0.5085   -0.7649    0.0062 C.ar      1 <0>        -0.1007
      4 C4         -0.7162   -1.1087    1.3363 C.ar      1 <0>         0.2132
      5 C5         -1.8977   -1.7264    1.7364 C.ar      1 <0>        -0.1603
      6 C6         -2.8480   -2.0885    0.8053 C.ar      1 <0>        -0.0631
      7 C7         -2.6149   -1.8453   -0.5377 C.ar      1 <0>        -0.0711
      8 C8         -1.4549   -1.1274   -0.9377 C.ar      1 <0>        -0.0292
      9 C9         -1.3862   -0.8255   -2.3827 C.2       1 <0>         0.0861
     10 C10        -0.9509    0.3398   -2.8947 C.2       1 <0>        -0.1116
     11 C11        -0.6353    0.4413   -4.3283 C.ar      1 <0>        -0.0593
     12 C12        -0.3474    1.6856   -4.8983 C.ar      1 <0>        -0.1046
     13 C13        -0.0527    1.7724   -6.2425 C.ar      1 <0>        -0.1241
     14 C14        -0.0414    0.6324   -7.0272 C.ar      1 <0>        -0.1142
     15 C15        -0.3257   -0.6025   -6.4707 C.ar      1 <0>        -0.1245
     16 C16        -0.6162   -0.7068   -5.1268 C.ar      1 <0>        -0.1002
     17 O1         -1.8617   -1.8059   -3.2220 O.3       1 <0>        -0.2442
     18 C17        -3.1197   -2.2446   -2.9393 C.ar      1 <0>         0.1113
     19 C18        -3.5464   -2.2781   -1.6025 C.ar      1 <0>        -0.0972
     20 C19        -4.8352   -2.7073   -1.3051 C.ar      1 <0>        -0.0811
     21 C20        -5.6819   -3.1039   -2.3218 C.ar      1 <0>        -0.1378
     22 C21        -5.2527   -3.0813   -3.6369 C.ar      1 <0>        -0.0875
     23 C22        -3.9727   -2.6576   -3.9456 C.ar      1 <0>        -0.1324
     24 N1          0.2965   -0.9353    2.2772 N.pl3     1 <0>        -0.7391
     25 C23         1.7047   -0.9964    1.8863 C.3       1 <0>         0.1446
     26 C24         1.9054   -0.3950    0.5168 C.2       1 <0>         0.3639
     27 O2          3.0432   -0.2082    0.1055 O.2       1 <0>        -0.4445
     28 C25         2.1501   -2.4668    1.8549 C.3       1 <0>        -0.1564
     29 C26         2.5592   -0.2427    2.9147 C.3       1 <0>        -0.1500
     30 H1          1.2886    2.0516   -0.6862 H         1 <0>         0.0714
     31 H2         -0.4661    1.7567   -0.6380 H         1 <0>         0.0736
     32 H3          0.4800    1.7450    0.8696 H         1 <0>         0.0641
     33 H4          1.0052   -0.2200   -1.3961 H         1 <0>         0.1112
     34 H5         -2.0732   -1.9256    2.7832 H         1 <0>         0.1315
     35 H6         -3.7687   -2.5538    1.1249 H         1 <0>         0.1329
     36 H7         -0.8329    1.2008   -2.2535 H         1 <0>         0.1477
     37 H8         -0.3562    2.5761   -4.2873 H         1 <0>         0.1234
     38 H9          0.1695    2.7326   -6.6842 H         1 <0>         0.1233
     39 H10         0.1902    0.7069   -8.0795 H         1 <0>         0.1215
     40 H11        -0.3155   -1.4874   -7.0898 H         1 <0>         0.1227
     41 H12        -0.8327   -1.6718   -4.6929 H         1 <0>         0.1447
     42 H13        -5.1706   -2.7250   -0.2801 H         1 <0>         0.1291
     43 H14        -6.6859   -3.4259   -2.0872 H         1 <0>         0.1290
     44 H15        -5.9188   -3.3910   -4.4280 H         1 <0>         0.1329
     45 H16        -3.6444   -2.6522   -4.9756 H         1 <0>         0.1345
     46 H17         0.0660   -0.7817    3.2120 H         1 <0>         0.4072
     47 H18         1.5436   -3.0148    1.1337 H         1 <0>         0.0622
     48 H19         3.1991   -2.5226    1.5643 H         1 <0>         0.0734
     49 H20         2.0233   -2.9061    2.8444 H         1 <0>         0.0752
     50 H21         2.4359   -0.7015    3.8957 H         1 <0>         0.0755
     51 H22         3.6077   -0.2901    2.6206 H         1 <0>         0.0839
     52 H23         2.2407    0.7989    2.9582 H         1 <0>         0.0662
@<TRIPOS>BOND
     1    1    2 1
     2    1   30 1
     3    1   31 1
     4    1   32 1
     5    2   26 1
     6    2    3 1
     7    2   33 1
     8    3    8 ar
     9    3    4 ar
    10    4    5 ar
    11    4   24 1
    12    5    6 ar
    13    5   34 1
    14    6    7 ar
    15    6   35 1
    16    7   19 1
    17    7    8 ar
    18    8    9 1
    19    9   10 2
    20    9   17 1
    21   10   11 1
    22   10   36 1
    23   11   16 ar
    24   11   12 ar
    25   12   13 ar
    26   12   37 1
    27   13   14 ar
    28   13   38 1
    29   14   15 ar
    30   14   39 1
    31   15   16 ar
    32   15   40 1
    33   16   41 1
    34   17   18 1
    35   18   23 ar
    36   18   19 ar
    37   19   20 ar
    38   20   21 ar
    39   20   42 1
    40   21   22 ar
    41   21   43 1
    42   22   23 ar
    43   22   44 1
    44   23   45 1
    45   24   25 1
    46   24   46 1
    47   25   26 1
    48   25   28 1
    49   25   29 1
    50   26   27 2
    51   28   47 1
    52   28   48 1
    53   28   49 1
    54   29   50 1
    55   29   51 1
    56   29   52 1
@<TRIPOS>MOLECULE
CHEMBL32603__1
   52    56     0     0     0
SMALL
USER_CHARGES

@<TRIPOS>ATOM
      1 C1          0.2284    2.0515   -0.3196 C.3       1 <0>        -0.1470
      2 C2          0.2466    0.5422   -0.0692 C.3       1 <0>        -0.1107
      3 C3          0.4879   -0.1803   -1.3706 C.ar      1 <0>        -0.1060
      4 C4          1.7081   -0.7636   -1.6698 C.ar      1 <0>         0.2188
      5 C5          1.8950   -1.4106   -2.8941 C.ar      1 <0>        -0.1660
      6 C6          0.8743   -1.4919   -3.8185 C.ar      1 <0>        -0.0592
      7 C7         -0.3549   -0.9218   -3.5280 C.ar      1 <0>        -0.0732
      8 C8         -0.5467   -0.2581   -2.2967 C.ar      1 <0>        -0.0347
      9 C9         -1.8745    0.3399   -2.0483 C.2       1 <0>         0.1064
     10 C10        -2.3309    0.5396   -0.7919 C.2       1 <0>        -0.1440
     11 C11        -3.2873    1.6244   -0.5203 C.ar      1 <0>        -0.0474
     12 C12        -3.6363    2.5237   -1.5329 C.ar      1 <0>        -0.1035
     13 C13        -4.5332    3.5376   -1.2704 C.ar      1 <0>        -0.1212
     14 C14        -5.0876    3.6666   -0.0088 C.ar      1 <0>        -0.1185
     15 C15        -4.7469    2.7810    0.9987 C.ar      1 <0>        -0.1208
     16 C16        -3.8563    1.7580    0.7503 C.ar      1 <0>        -0.1091
     17 O1         -2.6221    0.6832   -3.1373 O.3       1 <0>        -0.2385
     18 C17        -2.6104   -0.1492   -4.2103 C.ar      1 <0>         0.1184
     19 C18        -1.5009   -0.9710   -4.4603 C.ar      1 <0>        -0.0987
     20 C19        -1.4930   -1.8136   -5.5664 C.ar      1 <0>        -0.0791
     21 C20        -2.5826   -1.8416   -6.4146 C.ar      1 <0>        -0.1386
     22 C21        -3.6791   -1.0346   -6.1658 C.ar      1 <0>        -0.0859
     23 C22        -3.6962   -0.1922   -5.0705 C.ar      1 <0>        -0.1328
     24 N1          2.7776   -0.7442   -0.7694 N.pl3     1 <0>        -0.7318
     25 C23         2.7679    0.1904    0.3634 C.3       1 <0>         0.1339
     26 C24         1.3508    0.2070    0.9067 C.2       1 <0>         0.3673
     27 O2          1.1162   -0.0360    2.0661 O.2       1 <0>        -0.4303
     28 C25         3.7372   -0.2897    1.4456 C.3       1 <0>        -0.1489
     29 C26         3.1628    1.5905   -0.1105 C.3       1 <0>        -0.1638
     30 H1          1.1059    2.3338   -0.9014 H         1 <0>         0.0718
     31 H2         -0.6738    2.3175   -0.8705 H         1 <0>         0.0770
     32 H3          0.2402    2.5783    0.6345 H         1 <0>         0.0653
     33 H4         -0.7120    0.2314    0.3463 H         1 <0>         0.1265
     34 H5          2.8536   -1.8536   -3.1203 H         1 <0>         0.1313
     35 H6          1.0320   -1.9953   -4.7609 H         1 <0>         0.1341
     36 H7         -1.9937   -0.0971    0.0126 H         1 <0>         0.1557
     37 H8         -3.2043    2.4245   -2.5177 H         1 <0>         0.1349
     38 H9         -4.8035    4.2331   -2.0512 H         1 <0>         0.1218
     39 H10        -5.7894    4.4629    0.1906 H         1 <0>         0.1207
     40 H11        -5.1832    2.8886    1.9807 H         1 <0>         0.1225
     41 H12        -3.5953    1.0646    1.5361 H         1 <0>         0.1229
     42 H13        -0.6381   -2.4440   -5.7614 H         1 <0>         0.1306
     43 H14        -2.5788   -2.4949   -7.2746 H         1 <0>         0.1298
     44 H15        -4.5279   -1.0634   -6.8329 H         1 <0>         0.1335
     45 H16        -4.5567    0.4335   -4.8846 H         1 <0>         0.1355
     46 H17         3.5266   -1.3480   -0.8932 H         1 <0>         0.4091
     47 H18         4.7447   -0.3430    1.0331 H         1 <0>         0.0717
     48 H19         3.7233    0.4094    2.2817 H         1 <0>         0.0805
     49 H20         3.4339   -1.2774    1.7927 H         1 <0>         0.0686
     50 H21         2.5987    1.8427   -1.0084 H         1 <0>         0.0761
     51 H22         2.9416    2.3151    0.6731 H         1 <0>         0.0712
     52 H23         4.2295    1.6110   -0.3338 H         1 <0>         0.0733
@<TRIPOS>BOND
     1    1    2 1
     2    1   30 1
     3    1   31 1
     4    1   32 1
     5    2   26 1
     6    2    3 1
     7    2   33 1
     8    3    8 ar
     9    3    4 ar
    10    4    5 ar
    11    4   24 1
    12    5    6 ar
    13    5   34 1
    14    6    7 ar
    15    6   35 1
    16    7   19 1
    17    7    8 ar
    18    8    9 1
    19    9   10 2
    20    9   17 1
    21   10   11 1
    22   10   36 1
    23   11   16 ar
    24   11   12 ar
    25   12   13 ar
    26   12   37 1
    27   13   14 ar
    28   13   38 1
    29   14   15 ar
    30   14   39 1
    31   15   16 ar
    32   15   40 1
    33   16   41 1
    34   17   18 1
    35   18   23 ar
    36   18   19 ar
    37   19   20 ar
    38   20   21 ar
    39   20   42 1
    40   21   22 ar
    41   21   43 1
    42   22   23 ar
    43   22   44 1
    44   23   45 1
    45   24   25 1
    46   24   46 1
    47   25   26 1
    48   25   28 1
    49   25   29 1
    50   26   27 2
    51   28   47 1
    52   28   48 1
    53   28   49 1
    54   29   50 1
    55   29   51 1
    56   29   52 1
@<TRIPOS>MOLECULE
CHEMBL569544
   58    62     0     0     0
SMALL
USER_CHARGES

@<TRIPOS>ATOM
      1 C1          1.1259    2.0819   -0.7666 C.3       1 <0>        -0.1855
      2 C2          0.6099    0.7627   -0.1883 C.3       1 <0>        -0.0355
      3 C3         -0.8908    0.9227    0.0997 C.3       1 <0>         0.0158
      4 N1         -1.3341    0.7546    1.4897 N.pl3     1 <0>        -0.3946
      5 C4         -2.5461    0.8618    2.0741 C.cat     1 <0>         0.2818
      6 N2         -2.4335    0.6309    3.3529 N.pl3     1 <0>        -0.4654
      7 C5         -1.1492    0.3608    3.6513 C.2       1 <0>         0.0846
      8 C6         -0.4268    0.4297    2.4686 C.2       1 <0>         0.1089
      9 C7          0.9921    0.2175    2.1794 C.2       1 <0>        -0.1397
     10 C8          1.5036    0.3758    0.9703 C.2       1 <0>        -0.0227
     11 C9          2.9677    0.1254    0.7032 C.3       1 <0>        -0.0897
     12 C10         3.0812   -0.9007   -0.4310 C.3       1 <0>        -0.1202
     13 C11         2.2655   -0.4231   -1.6334 C.3       1 <0>        -0.1180
     14 C12         0.7866   -0.3178   -1.2557 C.3       1 <0>        -0.0906
     15 H1          0.4424   -1.2751   -0.8642 H         1 <0>         0.0882
     16 C13        -0.0315    0.0506   -2.4950 C.3       1 <0>         0.1743
     17 C14        -0.0292   -1.1240   -3.4754 C.3       1 <0>        -0.1492
     18 C15        -1.4485    0.3618   -2.0872 C.ar      1 <0>        -0.1019
     19 C16        -2.2690   -0.6457   -1.6153 C.ar      1 <0>        -0.1322
     20 C17        -3.5688   -0.3603   -1.2413 C.ar      1 <0>        -0.1131
     21 C18        -4.0480    0.9327   -1.3387 C.ar      1 <0>        -0.1270
     22 C19        -3.2272    1.9403   -1.8098 C.ar      1 <0>        -0.1002
     23 C20        -1.9261    1.6557   -2.1798 C.ar      1 <0>        -0.1439
     24 O1          0.5459    1.1968   -3.1235 O.3       1 <0>        -0.5408
     25 C21        -0.6073    0.0484    4.9936 C.ar      1 <0>        -0.0736
     26 C22         0.5697    0.6555    5.4318 C.ar      1 <0>        -0.0514
     27 C23         1.0704    0.3611    6.6830 C.ar      1 <0>        -0.1473
     28 C24         0.4066   -0.5364    7.5039 C.ar      1 <0>         0.1361
     29 C25        -0.7627   -1.1425    7.0731 C.ar      1 <0>        -0.1473
     30 C26        -1.2751   -0.8497    5.8263 C.ar      1 <0>        -0.0644
     31 F1          0.9012   -0.8218    8.7283 F         1 <0>        -0.1231
     32 H2          1.6276    1.8913   -1.7153 H         1 <0>         0.1160
     33 H3          0.2881    2.7601   -0.9285 H         1 <0>         0.0614
     34 H4          1.8297    2.5343   -0.0679 H         1 <0>         0.0719
     35 H5         -1.1899    1.9182   -0.2285 H         1 <0>         0.1181
     36 H6         -1.4278    0.1980   -0.5124 H         1 <0>         0.1808
     37 H7         -3.4664    1.1019    1.5624 H         1 <0>         0.2548
     38 H8          1.6508   -0.0594    2.9893 H         1 <0>         0.1525
     39 H9          3.4515    1.0560    0.4066 H         1 <0>         0.0944
     40 H10         3.4434   -0.2665    1.6022 H         1 <0>         0.0877
     41 H11         4.1265   -1.0081   -0.7206 H         1 <0>         0.0833
     42 H12         2.6976   -1.8625   -0.0907 H         1 <0>         0.0685
     43 H13         2.6280    0.5546   -1.9509 H         1 <0>         0.0866
     44 H14         2.3798   -1.1327   -2.4528 H         1 <0>         0.0815
     45 H15        -0.3675   -2.0250   -2.9637 H         1 <0>         0.0734
     46 H16        -0.6994   -0.9049   -4.3066 H         1 <0>         0.0720
     47 H17         0.9810   -1.2790   -3.8543 H         1 <0>         0.0804
     48 H18        -1.8946   -1.6559   -1.5392 H         1 <0>         0.1378
     49 H19        -4.2101   -1.1475   -0.8732 H         1 <0>         0.1363
     50 H20        -5.0637    1.1556   -1.0471 H         1 <0>         0.1363
     51 H21        -3.6017    2.9505   -1.8862 H         1 <0>         0.1376
     52 H22        -1.2837    2.4436   -2.5443 H         1 <0>         0.1354
     53 H23         0.1530    2.0362   -2.8478 H         1 <0>         0.3754
     54 H24         1.0882    1.3546    4.7924 H         1 <0>         0.1425
     55 H25         1.9816    0.8306    7.0232 H         1 <0>         0.1517
     56 H26        -1.2760   -1.8419    7.7163 H         1 <0>         0.1505
     57 H27        -2.1891   -1.3190    5.4933 H         1 <0>         0.1370
     58 H28        -3.1636    0.6511    3.9913 H         1 <0>         0.4636
@<TRIPOS>BOND
     1    1    2 1
     2    1   32 1
     3    1   33 1
     4    1   34 1
     5    2   10 1
     6    2   14 1
     7    2    3 1
     8    3    4 1
     9    3   35 1
    10    3   36 1
    11    4    8 1
    12    4    5 1
    13    5    6 2
    14    5   37 1
    15    6    7 1
    16    6   58 1
    17    7    8 2
    18    7   25 1
    19    8    9 1
    20    9   10 2
    21    9   38 1
    22   10   11 1
    23   11   12 1
    24   11   39 1
    25   11   40 1
    26   12   13 1
    27   12   41 1
    28   12   42 1
    29   13   14 1
    30   13   43 1
    31   13   44 1
    32   14   15 1
    33   14   16 1
    34   16   17 1
    35   16   18 1
    36   16   24 1
    37   17   45 1
    38   17   46 1
    39   17   47 1
    40   18   23 ar
    41   18   19 ar
    42   19   20 ar
    43   19   48 1
    44   20   21 ar
    45   20   49 1
    46   21   22 ar
    47   21   50 1
    48   22   23 ar
    49   22   51 1
    50   23   52 1
    51   24   53 1
    52   25   30 ar
    53   25   26 ar
    54   26   27 ar
    55   26   54 1
    56   27   28 ar
    57   27   55 1
    58   28   29 ar
    59   28   31 1
    60   29   30 ar
    61   29   56 1
    62   30   57 1
@<TRIPOS>MOLECULE
CHEMBL569544__1
   57    61     0     0     0
SMALL
USER_CHARGES

@<TRIPOS>ATOM
      1 C1          1.1259    2.0819   -0.7666 C.3       1 <0>        -0.1790
      2 C2          0.6099    0.7627   -0.1883 C.3       1 <0>        -0.0211
      3 C3         -0.8908    0.9227    0.0997 C.3       1 <0>         0.0327
      4 N1         -1.3341    0.7546    1.4897 N.pl3     1 <0>        -0.4393
      5 C4         -2.5461    0.8618    2.0741 C.2       1 <0>         0.1977
      6 N2         -2.4335    0.6309    3.3529 N.2       1 <0>        -0.4739
      7 C5         -1.1492    0.3608    3.6513 C.2       1 <0>         0.0527
      8 C6         -0.4268    0.4297    2.4686 C.2       1 <0>         0.0187
      9 C7          0.9921    0.2175    2.1794 C.2       1 <0>        -0.0899
     10 C8          1.5036    0.3758    0.9703 C.2       1 <0>        -0.0958
     11 C9          2.9677    0.1254    0.7032 C.3       1 <0>        -0.0774
     12 C10         3.0812   -0.9007   -0.4310 C.3       1 <0>        -0.1177
     13 C11         2.2655   -0.4231   -1.6334 C.3       1 <0>        -0.1126
     14 C12         0.7866   -0.3178   -1.2557 C.3       1 <0>        -0.0884
     15 H1          0.4424   -1.2751   -0.8642 H         1 <0>         0.0821
     16 C13        -0.0315    0.0506   -2.4950 C.3       1 <0>         0.1752
     17 C14        -0.0292   -1.1240   -3.4754 C.3       1 <0>        -0.1455
     18 C15        -1.4485    0.3618   -2.0872 C.ar      1 <0>        -0.0925
     19 C16        -2.2690   -0.6457   -1.6153 C.ar      1 <0>        -0.1262
     20 C17        -3.5688   -0.3603   -1.2413 C.ar      1 <0>        -0.1081
     21 C18        -4.0480    0.9327   -1.3387 C.ar      1 <0>        -0.1221
     22 C19        -3.2272    1.9403   -1.8098 C.ar      1 <0>        -0.1030
     23 C20        -1.9261    1.6557   -2.1798 C.ar      1 <0>        -0.1431
     24 O1          0.5459    1.1968   -3.1235 O.3       1 <0>        -0.5468
     25 C21        -0.6073    0.0484    4.9936 C.ar      1 <0>        -0.0052
     26 C22         0.4417   -0.8609    5.1305 C.ar      1 <0>        -0.0835
     27 C23         0.9430   -1.1486    6.3830 C.ar      1 <0>        -0.1509
     28 C24         0.4059   -0.5364    7.5042 C.ar      1 <0>         0.0955
     29 C25        -0.6365    0.3671    7.3735 C.ar      1 <0>        -0.1514
     30 C26        -1.1403    0.6666    6.1248 C.ar      1 <0>        -0.0662
     31 F1          0.9000   -0.8219    8.7288 F         1 <0>        -0.1401
     32 H2          1.6276    1.8913   -1.7153 H         1 <0>         0.1045
     33 H3          0.2881    2.7601   -0.9285 H         1 <0>         0.0539
     34 H4          1.8297    2.5343   -0.0679 H         1 <0>         0.0632
     35 H5         -1.1899    1.9182   -0.2285 H         1 <0>         0.0887
     36 H6         -1.4278    0.1980   -0.5124 H         1 <0>         0.1549
     37 H7         -3.4664    1.1019    1.5624 H         1 <0>         0.2019
     38 H8          1.6508   -0.0594    2.9893 H         1 <0>         0.1307
     39 H9          3.4515    1.0560    0.4066 H         1 <0>         0.0793
     40 H10         3.4434   -0.2665    1.6022 H         1 <0>         0.0759
     41 H11         4.1265   -1.0081   -0.7206 H         1 <0>         0.0716
     42 H12         2.6976   -1.8625   -0.0907 H         1 <0>         0.0639
     43 H13         2.6280    0.5546   -1.9509 H         1 <0>         0.0809
     44 H14         2.3798   -1.1327   -2.4528 H         1 <0>         0.0710
     45 H15        -0.3675   -2.0250   -2.9637 H         1 <0>         0.0714
     46 H16        -0.6994   -0.9049   -4.3066 H         1 <0>         0.0672
     47 H17         0.9810   -1.2790   -3.8543 H         1 <0>         0.0752
     48 H18        -1.8946   -1.6559   -1.5392 H         1 <0>         0.1312
     49 H19        -4.2101   -1.1475   -0.8732 H         1 <0>         0.1311
     50 H20        -5.0637    1.1556   -1.0471 H         1 <0>         0.1305
     51 H21        -3.6017    2.9505   -1.8862 H         1 <0>         0.1304
     52 H22        -1.2837    2.4436   -2.5443 H         1 <0>         0.1283
     53 H23         0.1530    2.0362   -2.8478 H         1 <0>         0.3754
     54 H24         0.8604   -1.3391    4.2574 H         1 <0>         0.1329
     55 H25         1.7551   -1.8524    6.4901 H         1 <0>         0.1372
     56 H26        -1.0521    0.8411    8.2504 H         1 <0>         0.1373
     57 H27        -1.9495    1.3746    6.0235 H         1 <0>         0.1366
@<TRIPOS>BOND
     1    1    2 1
     2    1   32 1
     3    1   33 1
     4    1   34 1
     5    2   10 1
     6    2   14 1
     7    2    3 1
     8    3    4 1
     9    3   35 1
    10    3   36 1
    11    4    8 1
    12    4    5 1
    13    5    6 2
    14    5   37 1
    15    6    7 1
    16    7    8 2
    17    7   25 1
    18    8    9 1
    19    9   10 2
    20    9   38 1
    21   10   11 1
    22   11   12 1
    23   11   39 1
    24   11   40 1
    25   12   13 1
    26   12   41 1
    27   12   42 1
    28   13   14 1
    29   13   43 1
    30   13   44 1
    31   14   15 1
    32   14   16 1
    33   16   17 1
    34   16   18 1
    35   16   24 1
    36   17   45 1
    37   17   46 1
    38   17   47 1
    39   18   23 ar
    40   18   19 ar
    41   19   20 ar
    42   19   48 1
    43   20   21 ar
    44   20   49 1
    45   21   22 ar
    46   21   50 1
    47   22   23 ar
    48   22   51 1
    49   23   52 1
    50   24   53 1
    51   25   30 ar
    52   25   26 ar
    53   26   27 ar
    54   26   54 1
    55   27   28 ar
    56   27   55 1
    57   28   29 ar
    58   28   31 1
    59   29   30 ar
    60   29   56 1
    61   30   57 1
@<TRIPOS>MOLECULE
CHEMBL569543
   58    63     0     0     0
SMALL
USER_CHARGES

@<TRIPOS>ATOM
      1 C1          0.1058    1.5973   -0.0369 C.3       1 <0>        -0.1585
      2 C2          0.0517    0.0687    0.0014 C.3       1 <0>        -0.0319
      3 C3         -1.4244   -0.3571   -0.0202 C.3       1 <0>         0.0972
      4 N1         -1.9215   -1.1314    1.1245 N.pl3     1 <0>        -0.4085
      5 C4         -3.1433   -1.6184    1.4280 C.cat     1 <0>         0.2929
      6 N2         -3.0917   -2.2365    2.5754 N.pl3     1 <0>        -0.4646
      7 C5         -1.8381   -2.1811    3.0618 C.2       1 <0>         0.0855
      8 C6         -1.0690   -1.4805    2.1436 C.2       1 <0>         0.1156
      9 C7          0.3509   -1.1258    2.1305 C.2       1 <0>        -0.1409
     10 C8          0.8951   -0.4025    1.1666 C.2       1 <0>        -0.0216
     11 C9          2.3683   -0.0753    1.1730 C.3       1 <0>        -0.0894
     12 C10         2.9720   -0.5480   -0.1553 C.3       1 <0>        -0.1160
     13 C11         2.1720    0.0428   -1.3172 C.3       1 <0>        -0.1325
     14 C12         0.7266   -0.4561   -1.2664 C.3       1 <0>        -0.1066
     15 C13        -0.0315    0.0506   -2.4950 C.3       1 <0>         0.1645
     16 C14         0.5340   -0.5928   -3.7349 C.2       1 <0>        -0.1456
     17 C15         1.4781    0.0332   -4.4521 C.2       1 <0>        -0.1422
     18 S1          1.8116   -1.1034   -5.7843 S.3       1 <0>         0.0600
     19 C16         0.6727   -2.3893   -5.3407 C.ar      1 <0>        -0.1140
     20 C17         0.0653   -1.9028   -4.1625 C.ar      1 <0>        -0.0832
     21 C18        -0.9082   -2.7348   -3.5612 C.ar      1 <0>        -0.0862
     22 C19        -1.2234   -3.9406   -4.1050 C.ar      1 <0>        -0.1162
     23 C20        -0.6078   -4.3983   -5.2620 C.ar      1 <0>        -0.0919
     24 C21         0.3409   -3.6112   -5.8848 C.ar      1 <0>        -0.0694
     25 O1          0.1078    1.4697   -2.5889 O.3       1 <0>        -0.5436
     26 C22        -1.3667   -2.7602    4.3408 C.ar      1 <0>        -0.0755
     27 C23        -0.5496   -2.0124    5.1886 C.ar      1 <0>        -0.0508
     28 C24        -0.1131   -2.5564    6.3787 C.ar      1 <0>        -0.1475
     29 C25        -0.4848   -3.8436    6.7324 C.ar      1 <0>         0.1371
     30 C26        -1.2960   -4.5907    5.8934 C.ar      1 <0>        -0.1475
     31 C27        -1.7431   -4.0533    4.7042 C.ar      1 <0>        -0.0637
     32 F1         -0.0544   -4.3721    7.8988 F         1 <0>        -0.1227
     33 H1          1.1158    1.9189   -0.2909 H         1 <0>         0.0818
     34 H2         -0.5928    1.9668   -0.7875 H         1 <0>         0.0989
     35 H3         -0.1672    1.9950    0.9406 H         1 <0>         0.0575
     36 H4         -2.0313    0.5446   -0.1026 H         1 <0>         0.1239
     37 H5         -1.5885   -0.9490   -0.9206 H         1 <0>         0.1134
     38 H6         -4.0267   -1.5123    0.8158 H         1 <0>         0.2633
     39 H7          0.9742   -1.4503    2.9507 H         1 <0>         0.1530
     40 H8          2.5052    1.0011    1.2764 H         1 <0>         0.0954
     41 H9          2.8553   -0.5894    2.0016 H         1 <0>         0.0884
     42 H10         4.0082   -0.2166   -0.2219 H         1 <0>         0.0834
     43 H11         2.9345   -1.6363   -0.2046 H         1 <0>         0.0699
     44 H12         2.1818    1.1305   -1.2468 H         1 <0>         0.0805
     45 H13         2.6264   -0.2608   -2.2603 H         1 <0>         0.0828
     46 H14         0.7184   -1.5460   -1.2580 H         1 <0>         0.0907
     47 H15        -1.0869   -0.2055   -2.4019 H         1 <0>         0.1054
     48 H16         1.9288    0.9971   -4.2672 H         1 <0>         0.1896
     49 H17        -1.4062   -2.4088   -2.6600 H         1 <0>         0.1111
     50 H18        -1.9697   -4.5566   -3.6255 H         1 <0>         0.1273
     51 H19        -0.8738   -5.3597   -5.6759 H         1 <0>         0.1388
     52 H20         0.8277   -3.9560   -6.7851 H         1 <0>         0.1364
     53 H21         1.0229    1.7703   -2.6743 H         1 <0>         0.3782
     54 H22        -0.2588   -1.0093    4.9135 H         1 <0>         0.1430
     55 H23         0.5196   -1.9782    7.0358 H         1 <0>         0.1520
     56 H24        -1.5823   -5.5938    6.1732 H         1 <0>         0.1507
     57 H25        -2.3793   -4.6347    4.0533 H         1 <0>         0.1371
     58 H26        -3.8421   -2.6695    3.0116 H         1 <0>         0.4653
@<TRIPOS>BOND
     1    1    2 1
     2    1   33 1
     3    1   34 1
     4    1   35 1
     5    2   10 1
     6    2   14 1
     7    2    3 1
     8    3    4 1
     9    3   36 1
    10    3   37 1
    11    4    8 1
    12    4    5 1
    13    5    6 2
    14    5   38 1
    15    6    7 1
    16    6   58 1
    17    7    8 2
    18    7   26 1
    19    8    9 1
    20    9   10 2
    21    9   39 1
    22   10   11 1
    23   11   12 1
    24   11   40 1
    25   11   41 1
    26   12   13 1
    27   12   42 1
    28   12   43 1
    29   13   14 1
    30   13   44 1
    31   13   45 1
    32   14   15 1
    33   14   46 1
    34   15   16 1
    35   15   25 1
    36   15   47 1
    37   16   20 1
    38   16   17 2
    39   17   18 1
    40   17   48 1
    41   18   19 1
    42   19   24 ar
    43   19   20 ar
    44   20   21 ar
    45   21   22 ar
    46   21   49 1
    47   22   23 ar
    48   22   50 1
    49   23   24 ar
    50   23   51 1
    51   24   52 1
    52   25   53 1
    53   26   31 ar
    54   26   27 ar
    55   27   28 ar
    56   27   54 1
    57   28   29 ar
    58   28   55 1
    59   29   30 ar
    60   29   32 1
    61   30   31 ar
    62   30   56 1
    63   31   57 1
@<TRIPOS>MOLECULE
CHEMBL569543__1
   57    62     0     0     0
SMALL
USER_CHARGES

@<TRIPOS>ATOM
      1 C1          0.1058    1.5973   -0.0369 C.3       1 <0>        -0.1515
      2 C2          0.0517    0.0687    0.0014 C.3       1 <0>        -0.0165
      3 C3         -1.4244   -0.3571   -0.0202 C.3       1 <0>         0.1099
      4 N1         -1.9215   -1.1314    1.1245 N.pl3     1 <0>        -0.4514
      5 C4         -3.1433   -1.6184    1.4280 C.2       1 <0>         0.2006
      6 N2         -3.0917   -2.2365    2.5754 N.2       1 <0>        -0.4716
      7 C5         -1.8381   -2.1811    3.0618 C.2       1 <0>         0.0566
      8 C6         -1.0690   -1.4805    2.1436 C.2       1 <0>         0.0241
      9 C7          0.3509   -1.1258    2.1305 C.2       1 <0>        -0.0899
     10 C8          0.8951   -0.4025    1.1666 C.2       1 <0>        -0.0952
     11 C9          2.3683   -0.0753    1.1730 C.3       1 <0>        -0.0771
     12 C10         2.9720   -0.5480   -0.1553 C.3       1 <0>        -0.1134
     13 C11         2.1720    0.0428   -1.3172 C.3       1 <0>        -0.1275
     14 C12         0.7266   -0.4561   -1.2664 C.3       1 <0>        -0.1022
     15 C13        -0.0315    0.0506   -2.4950 C.3       1 <0>         0.1611
     16 C14         0.5340   -0.5928   -3.7349 C.2       1 <0>        -0.1336
     17 C15         1.4781    0.0332   -4.4521 C.2       1 <0>        -0.1476
     18 S1          1.8116   -1.1034   -5.7843 S.3       1 <0>         0.0401
     19 C16         0.6727   -2.3893   -5.3407 C.ar      1 <0>        -0.1121
     20 C17         0.0653   -1.9028   -4.1625 C.ar      1 <0>        -0.0824
     21 C18        -0.9082   -2.7348   -3.5612 C.ar      1 <0>        -0.0788
     22 C19        -1.2234   -3.9406   -4.1050 C.ar      1 <0>        -0.1174
     23 C20        -0.6078   -4.3983   -5.2620 C.ar      1 <0>        -0.0922
     24 C21         0.3409   -3.6112   -5.8848 C.ar      1 <0>        -0.0759
     25 O1          0.1078    1.4697   -2.5889 O.3       1 <0>        -0.5431
     26 C22        -1.3667   -2.7602    4.3408 C.ar      1 <0>        -0.0078
     27 C23        -0.0783   -3.2858    4.4382 C.ar      1 <0>        -0.0825
     28 C24         0.3560   -3.8241    5.6317 C.ar      1 <0>        -0.1513
     29 C25        -0.4854   -3.8439    6.7325 C.ar      1 <0>         0.0971
     30 C26        -1.7664   -3.3235    6.6406 C.ar      1 <0>        -0.1515
     31 C27        -2.2078   -2.7769    5.4535 C.ar      1 <0>        -0.0649
     32 F1         -0.0556   -4.3727    7.8990 F         1 <0>        -0.1396
     33 H1          1.1158    1.9189   -0.2909 H         1 <0>         0.0697
     34 H2         -0.5928    1.9668   -0.7875 H         1 <0>         0.0888
     35 H3         -0.1672    1.9950    0.9406 H         1 <0>         0.0516
     36 H4         -2.0313    0.5446   -0.1026 H         1 <0>         0.0926
     37 H5         -1.5885   -0.9490   -0.9206 H         1 <0>         0.0830
     38 H6         -4.0266   -1.5128    0.8155 H         1 <0>         0.2091
     39 H7          0.9742   -1.4503    2.9507 H         1 <0>         0.1320
     40 H8          2.5052    1.0011    1.2764 H         1 <0>         0.0805
     41 H9          2.8553   -0.5894    2.0016 H         1 <0>         0.0771
     42 H10         4.0082   -0.2166   -0.2219 H         1 <0>         0.0722
     43 H11         2.9345   -1.6363   -0.2046 H         1 <0>         0.0655
     44 H12         2.1818    1.1305   -1.2468 H         1 <0>         0.0753
     45 H13         2.6264   -0.2608   -2.2603 H         1 <0>         0.0730
     46 H14         0.7184   -1.5460   -1.2580 H         1 <0>         0.0851
     47 H15        -1.0869   -0.2055   -2.4019 H         1 <0>         0.1084
     48 H16         1.9288    0.9971   -4.2672 H         1 <0>         0.1878
     49 H17        -1.4062   -2.4088   -2.6600 H         1 <0>         0.1183
     50 H18        -1.9697   -4.5566   -3.6255 H         1 <0>         0.1289
     51 H19        -0.8738   -5.3597   -5.6759 H         1 <0>         0.1366
     52 H20         0.8277   -3.9560   -6.7851 H         1 <0>         0.1333
     53 H21         1.0229    1.7703   -2.6743 H         1 <0>         0.3728
     54 H22         0.5781   -3.2715    3.5807 H         1 <0>         0.1331
     55 H23         1.3534   -4.2313    5.7082 H         1 <0>         0.1376
     56 H24        -2.4187   -3.3419    7.5012 H         1 <0>         0.1378
     57 H25        -3.2047   -2.3672    5.3843 H         1 <0>         0.1372
@<TRIPOS>BOND
     1    1    2 1
     2    1   33 1
     3    1   34 1
     4    1   35 1
     5    2   10 1
     6    2   14 1
     7    2    3 1
     8    3    4 1
     9    3   36 1
    10    3   37 1
    11    4    8 1
    12    4    5 1
    13    5    6 2
    14    5   38 1
    15    6    7 1
    16    7    8 2
    17    7   26 1
    18    8    9 1
    19    9   10 2
    20    9   39 1
    21   10   11 1
    22   11   12 1
    23   11   40 1
    24   11   41 1
    25   12   13 1
    26   12   42 1
    27   12   43 1
    28   13   14 1
    29   13   44 1
    30   13   45 1
    31   14   15 1
    32   14   46 1
    33   15   16 1
    34   15   25 1
    35   15   47 1
    36   16   20 1
    37   16   17 2
    38   17   18 1
    39   17   48 1
    40   18   19 1
    41   19   24 ar
    42   19   20 ar
    43   20   21 ar
    44   21   22 ar
    45   21   49 1
    46   22   23 ar
    47   22   50 1
    48   23   24 ar
    49   23   51 1
    50   24   52 1
    51   25   53 1
    52   26   31 ar
    53   26   27 ar
    54   27   28 ar
    55   27   54 1
    56   28   29 ar
    57   28   55 1
    58   29   30 ar
    59   29   32 1
    60   30   31 ar
    61   30   56 1
    62   31   57 1
@<TRIPOS>MOLECULE
CHEMBL569543__2
   58    63     0     0     0
SMALL
USER_CHARGES

@<TRIPOS>ATOM
      1 C1         -0.0211    1.8709   -0.2284 C.3       1 <0>        -0.1618
      2 C2         -0.0976    0.3564   -0.0253 C.3       1 <0>        -0.0310
      3 C3         -1.5594   -0.0771   -0.2153 C.3       1 <0>         0.0650
      4 N1         -2.2279   -0.7187    0.9242 N.pl3     1 <0>        -0.4022
      5 C4         -3.4865   -1.1745    1.0979 C.cat     1 <0>         0.2913
      6 N2         -3.6110   -1.6575    2.3031 N.pl3     1 <0>        -0.4674
      7 C5         -2.4418   -1.5403    2.9591 C.2       1 <0>         0.0846
      8 C6         -1.5383   -0.9447    2.0906 C.2       1 <0>         0.1090
      9 C7         -0.1279   -0.5861    2.2464 C.2       1 <0>        -0.1367
     10 C8          0.5601    0.0256    1.2972 C.2       1 <0>        -0.0263
     11 C9          2.0201    0.3594    1.4832 C.3       1 <0>        -0.0898
     12 C10         2.8067   -0.2583    0.3205 C.3       1 <0>        -0.1179
     13 C11         2.1928    0.1919   -1.0060 C.3       1 <0>        -0.1282
     14 C12         0.7500   -0.3057   -1.1121 C.3       1 <0>        -0.1024
     15 C13         0.1863    0.0535   -2.4884 C.3       1 <0>         0.1571
     16 C14         1.1281   -0.4328   -3.5595 C.2       1 <0>        -0.1389
     17 C15         0.9274   -1.6199   -4.1497 C.2       1 <0>        -0.1528
     18 S1          2.2715   -1.7388   -5.3146 S.3       1 <0>         0.0562
     19 C16         3.0667   -0.1893   -4.9765 C.ar      1 <0>        -0.1128
     20 C17         2.2614    0.3839   -3.9682 C.ar      1 <0>        -0.0845
     21 C18         2.6554    1.6554   -3.4889 C.ar      1 <0>        -0.0820
     22 C19         3.7547    2.2777   -3.9922 C.ar      1 <0>        -0.1163
     23 C20         4.5272    1.6945   -4.9873 C.ar      1 <0>        -0.0878
     24 C21         4.1815    0.4495   -5.4750 C.ar      1 <0>        -0.0740
     25 O1         -1.0894   -0.5679   -2.6576 O.3       1 <0>        -0.5444
     26 C22        -2.1700   -1.9674    4.3509 C.ar      1 <0>        -0.0745
     27 C23        -1.4776   -1.1234    5.2193 C.ar      1 <0>        -0.0515
     28 C24        -1.2268   -1.5258    6.5147 C.ar      1 <0>        -0.1476
     29 C25        -1.6611   -2.7664    6.9536 C.ar      1 <0>         0.1362
     30 C26        -2.3488   -3.6086    6.0947 C.ar      1 <0>        -0.1475
     31 C27        -2.6104   -3.2126    4.7994 C.ar      1 <0>        -0.0641
     32 F1         -1.4126   -3.1562    8.2230 F         1 <0>        -0.1231
     33 H1          1.0230    2.1837   -0.2396 H         1 <0>         0.0847
     34 H2         -0.4896    2.1345   -1.1766 H         1 <0>         0.0763
     35 H3         -0.5422    2.3736    0.5864 H         1 <0>         0.0681
     36 H4         -2.1373    0.8060   -0.4879 H         1 <0>         0.1161
     37 H5         -1.5963   -0.7686   -1.0571 H         1 <0>         0.1586
     38 H6         -4.2693   -1.1436    0.3544 H         1 <0>         0.2625
     39 H7          0.3644   -0.8117    3.1808 H         1 <0>         0.1517
     40 H8          2.1526    1.4413    1.4827 H         1 <0>         0.0939
     41 H9          2.3742   -0.0544    2.4273 H         1 <0>         0.0879
     42 H10         3.8453    0.0689    0.3699 H         1 <0>         0.0823
     43 H11         2.7645   -1.3453    0.3900 H         1 <0>         0.0689
     44 H12         2.2046    1.2806   -1.0588 H         1 <0>         0.0800
     45 H13         2.7772   -0.2147   -1.8314 H         1 <0>         0.0878
     46 H14         0.7281   -1.3877   -0.9814 H         1 <0>         0.0860
     47 H15         0.0765    1.1353   -2.5649 H         1 <0>         0.1224
     48 H16         0.1392   -2.3343   -3.9632 H         1 <0>         0.1861
     49 H17         2.0764    2.1373   -2.7150 H         1 <0>         0.1232
     50 H18         4.0331    3.2484   -3.6091 H         1 <0>         0.1309
     51 H19         5.3961    2.2074   -5.3723 H         1 <0>         0.1388
     52 H20         4.7737   -0.0149   -6.2496 H         1 <0>         0.1352
     53 H21        -1.0613   -1.5344   -2.6416 H         1 <0>         0.3785
     54 H22        -1.1381   -0.1566    4.8780 H         1 <0>         0.1426
     55 H23        -0.6909   -0.8731    7.1878 H         1 <0>         0.1517
     56 H24        -2.6846   -4.5748    6.4413 H         1 <0>         0.1505
     57 H25        -3.1507   -3.8678    4.1322 H         1 <0>         0.1371
     58 H26        -4.4222   -2.0421    2.6704 H         1 <0>         0.4642
@<TRIPOS>BOND
     1    1    2 1
     2    1   33 1
     3    1   34 1
     4    1   35 1
     5    2   10 1
     6    2   14 1
     7    2    3 1
     8    3    4 1
     9    3   36 1
    10    3   37 1
    11    4    8 1
    12    4    5 1
    13    5    6 2
    14    5   38 1
    15    6    7 1
    16    6   58 1
    17    7    8 2
    18    7   26 1
    19    8    9 1
    20    9   10 2
    21    9   39 1
    22   10   11 1
    23   11   12 1
    24   11   40 1
    25   11   41 1
    26   12   13 1
    27   12   42 1
    28   12   43 1
    29   13   14 1
    30   13   44 1
    31   13   45 1
    32   14   15 1
    33   14   46 1
    34   15   16 1
    35   15   25 1
    36   15   47 1
    37   16   20 1
    38   16   17 2
    39   17   18 1
    40   17   48 1
    41   18   19 1
    42   19   24 ar
    43   19   20 ar
    44   20   21 ar
    45   21   22 ar
    46   21   49 1
    47   22   23 ar
    48   22   50 1
    49   23   24 ar
    50   23   51 1
    51   24   52 1
    52   25   53 1
    53   26   31 ar
    54   26   27 ar
    55   27   28 ar
    56   27   54 1
    57   28   29 ar
    58   28   55 1
    59   29   30 ar
    60   29   32 1
    61   30   31 ar
    62   30   56 1
    63   31   57 1
@<TRIPOS>MOLECULE
CHEMBL569543__3
   57    62     0     0     0
SMALL
USER_CHARGES

@<TRIPOS>ATOM
      1 C1         -0.0211    1.8709   -0.2284 C.3       1 <0>        -0.1547
      2 C2         -0.0976    0.3564   -0.0253 C.3       1 <0>        -0.0152
      3 C3         -1.5594   -0.0771   -0.2153 C.3       1 <0>         0.0782
      4 N1         -2.2279   -0.7187    0.9242 N.pl3     1 <0>        -0.4462
      5 C4         -3.4865   -1.1745    1.0979 C.2       1 <0>         0.2003
      6 N2         -3.6110   -1.6575    2.3031 N.2       1 <0>        -0.4751
      7 C5         -2.4418   -1.5403    2.9591 C.2       1 <0>         0.0548
      8 C6         -1.5383   -0.9447    2.0906 C.2       1 <0>         0.0179
      9 C7         -0.1279   -0.5861    2.2464 C.2       1 <0>        -0.0854
     10 C8          0.5601    0.0256    1.2972 C.2       1 <0>        -0.1000
     11 C9          2.0201    0.3594    1.4832 C.3       1 <0>        -0.0774
     12 C10         2.8067   -0.2583    0.3205 C.3       1 <0>        -0.1154
     13 C11         2.1928    0.1919   -1.0060 C.3       1 <0>        -0.1226
     14 C12         0.7500   -0.3057   -1.1121 C.3       1 <0>        -0.0998
     15 C13         0.1863    0.0535   -2.4884 C.3       1 <0>         0.1569
     16 C14         1.1281   -0.4328   -3.5595 C.2       1 <0>        -0.1328
     17 C15         0.9274   -1.6199   -4.1497 C.2       1 <0>        -0.1515
     18 S1          2.2715   -1.7388   -5.3146 S.3       1 <0>         0.0413
     19 C16         3.0667   -0.1893   -4.9765 C.ar      1 <0>        -0.1131
     20 C17         2.2614    0.3839   -3.9682 C.ar      1 <0>        -0.0793
     21 C18         2.6554    1.6554   -3.4889 C.ar      1 <0>        -0.0778
     22 C19         3.7547    2.2777   -3.9922 C.ar      1 <0>        -0.1197
     23 C20         4.5272    1.6945   -4.9873 C.ar      1 <0>        -0.0920
     24 C21         4.1815    0.4495   -5.4750 C.ar      1 <0>        -0.0766
     25 O1         -1.0894   -0.5679   -2.6576 O.3       1 <0>        -0.5415
     26 C22        -2.1700   -1.9674    4.3509 C.ar      1 <0>        -0.0065
     27 C23        -0.9158   -2.4714    4.6959 C.ar      1 <0>        -0.0832
     28 C24        -0.6676   -2.8679    5.9936 C.ar      1 <0>        -0.1513
     29 C25        -1.6617   -2.7667    6.9536 C.ar      1 <0>         0.0960
     30 C26        -2.9093   -2.2671    6.6158 C.ar      1 <0>        -0.1514
     31 C27        -3.1654   -1.8617    5.3224 C.ar      1 <0>        -0.0656
     32 F1         -1.4138   -3.1568    8.2231 F         1 <0>        -0.1399
     33 H1          1.0230    2.1837   -0.2396 H         1 <0>         0.0728
     34 H2         -0.4896    2.1345   -1.1766 H         1 <0>         0.0653
     35 H3         -0.5422    2.3736    0.5864 H         1 <0>         0.0624
     36 H4         -2.1373    0.8060   -0.4879 H         1 <0>         0.0846
     37 H5         -1.5963   -0.7686   -1.0571 H         1 <0>         0.1316
     38 H6         -4.2691   -1.1442    0.3541 H         1 <0>         0.2083
     39 H7          0.3644   -0.8117    3.1808 H         1 <0>         0.1308
     40 H8          2.1526    1.4413    1.4827 H         1 <0>         0.0790
     41 H9          2.3742   -0.0544    2.4273 H         1 <0>         0.0765
     42 H10         3.8453    0.0689    0.3699 H         1 <0>         0.0711
     43 H11         2.7645   -1.3453    0.3900 H         1 <0>         0.0647
     44 H12         2.2046    1.2806   -1.0588 H         1 <0>         0.0744
     45 H13         2.7772   -0.2147   -1.8314 H         1 <0>         0.0772
     46 H14         0.7281   -1.3877   -0.9814 H         1 <0>         0.0807
     47 H15         0.0765    1.1353   -2.5649 H         1 <0>         0.1177
     48 H16         0.1392   -2.3343   -3.9632 H         1 <0>         0.1873
     49 H17         2.0764    2.1373   -2.7150 H         1 <0>         0.1253
     50 H18         4.0331    3.2484   -3.6091 H         1 <0>         0.1290
     51 H19         5.3961    2.2074   -5.3723 H         1 <0>         0.1358
     52 H20         4.7737   -0.0149   -6.2496 H         1 <0>         0.1325
     53 H21        -1.0613   -1.5344   -2.6416 H         1 <0>         0.3770
     54 H22        -0.1406   -2.5513    3.9482 H         1 <0>         0.1329
     55 H23         0.3030   -3.2582    6.2617 H         1 <0>         0.1372
     56 H24        -3.6810   -2.1909    7.3675 H         1 <0>         0.1375
     57 H25        -4.1365   -1.4680    5.0612 H         1 <0>         0.1370
@<TRIPOS>BOND
     1    1    2 1
     2    1   33 1
     3    1   34 1
     4    1   35 1
     5    2   10 1
     6    2   14 1
     7    2    3 1
     8    3    4 1
     9    3   36 1
    10    3   37 1
    11    4    8 1
    12    4    5 1
    13    5    6 2
    14    5   38 1
    15    6    7 1
    16    7    8 2
    17    7   26 1
    18    8    9 1
    19    9   10 2
    20    9   39 1
    21   10   11 1
    22   11   12 1
    23   11   40 1
    24   11   41 1
    25   12   13 1
    26   12   42 1
    27   12   43 1
    28   13   14 1
    29   13   44 1
    30   13   45 1
    31   14   15 1
    32   14   46 1
    33   15   16 1
    34   15   25 1
    35   15   47 1
    36   16   20 1
    37   16   17 2
    38   17   18 1
    39   17   48 1
    40   18   19 1
    41   19   24 ar
    42   19   20 ar
    43   20   21 ar
    44   21   22 ar
    45   21   49 1
    46   22   23 ar
    47   22   50 1
    48   23   24 ar
    49   23   51 1
    50   24   52 1
    51   25   53 1
    52   26   31 ar
    53   26   27 ar
    54   27   28 ar
    55   27   54 1
    56   28   29 ar
    57   28   55 1
    58   29   30 ar
    59   29   32 1
    60   30   31 ar
    61   30   56 1
    62   31   57 1
@<TRIPOS>MOLECULE
CHEMBL569543__4
   58    63     0     0     0
SMALL
USER_CHARGES

@<TRIPOS>ATOM
      1 C1         -0.0187    1.5258    0.0104 C.3       1 <0>        -0.1533
      2 C2          0.0021   -0.0041    0.0020 C.3       1 <0>        -0.0353
      3 C3         -1.4314   -0.5280   -0.0744 C.3       1 <0>         0.1006
      4 N1         -2.0736   -0.3705    1.2311 N.pl3     1 <0>        -0.4110
      5 C4         -3.3487   -0.1404    1.5650 C.cat     1 <0>         0.3078
      6 N2         -3.4569   -0.1007    2.8693 N.pl3     1 <0>        -0.4804
      7 C5         -2.2443   -0.2971    3.4331 C.2       1 <0>         0.0960
      8 C6         -1.3503   -0.4616    2.4109 C.2       1 <0>         0.1030
      9 C7          0.1008   -0.6794    2.3958 C.2       1 <0>        -0.1315
     10 C8          0.7318   -0.4988    1.2245 C.2       1 <0>        -0.0379
     11 C9          2.2124   -0.7768    1.1036 C.3       1 <0>        -0.0909
     12 C10         2.4384   -1.8723    0.0626 C.3       1 <0>        -0.1157
     13 C11         1.3090   -1.8976   -0.9610 C.3       1 <0>        -0.1300
     14 C12         0.7728   -0.4936   -1.2315 C.3       1 <0>        -0.0997
     15 C13        -0.1648   -0.5281   -2.4401 C.3       1 <0>         0.1612
     16 C14         0.5934   -1.0090   -3.6505 C.2       1 <0>        -0.1451
     17 C15         1.1413   -0.1284   -4.5002 C.2       1 <0>        -0.1437
     18 S1          1.9081   -1.1615   -5.7341 S.3       1 <0>         0.0579
     19 C16         1.4711   -2.7492   -5.0740 C.ar      1 <0>        -0.1139
     20 C17         0.7434   -2.4341   -3.9057 C.ar      1 <0>        -0.0844
     21 C18         0.2574   -3.5255   -3.1480 C.ar      1 <0>        -0.0843
     22 C19         0.4955   -4.8053   -3.5412 C.ar      1 <0>        -0.1170
     23 C20         1.2183   -5.0884   -4.6921 C.ar      1 <0>        -0.0896
     24 C21         1.7015   -4.0506   -5.4645 C.ar      1 <0>        -0.0719
     25 O1         -0.6726    0.7846   -2.6866 O.3       1 <0>        -0.5510
     26 C22        -1.9410   -0.3277    4.8824 C.ar      1 <0>        -0.0758
     27 C23        -0.8364    0.3631    5.3810 C.ar      1 <0>        -0.0494
     28 C24        -0.5582    0.3313    6.7317 C.ar      1 <0>        -0.1480
     29 C25        -1.3735   -0.3856    7.5927 C.ar      1 <0>         0.1371
     30 C26        -2.4717   -1.0738    7.1023 C.ar      1 <0>        -0.1479
     31 C27        -2.7623   -1.0429    5.7542 C.ar      1 <0>        -0.0632
     32 F1         -1.0966   -0.4140    8.9147 F         1 <0>        -0.1229
     33 H1          1.0039    1.9031    0.0027 H         1 <0>         0.0751
     34 H2         -0.5459    1.8868   -0.8726 H         1 <0>         0.0915
     35 H3         -0.5289    1.8773    0.9072 H         1 <0>         0.0546
     36 H4         -1.9861    0.0373   -0.8233 H         1 <0>         0.1409
     37 H5         -1.4192   -1.5827   -0.3490 H         1 <0>         0.1155
     38 H6         -4.1622   -0.0077    0.8671 H         1 <0>         0.2625
     39 H7          0.6369   -0.9824    3.2831 H         1 <0>         0.1637
     40 H8          2.7289    0.1316    0.7936 H         1 <0>         0.0889
     41 H9          2.6006   -1.1055    2.0676 H         1 <0>         0.0858
     42 H10         3.3823   -1.6887   -0.4507 H         1 <0>         0.0757
     43 H11         2.4875   -2.8384    0.5649 H         1 <0>         0.0737
     44 H12         1.6816   -2.3229   -1.8929 H         1 <0>         0.0928
     45 H13         0.4993   -2.5222   -0.5837 H         1 <0>         0.0615
     46 H14         1.6045    0.1815   -1.4332 H         1 <0>         0.1006
     47 H15        -0.9937   -1.2063   -2.2376 H         1 <0>         0.1077
     48 H16         1.1222    0.9502   -4.4495 H         1 <0>         0.1890
     49 H17        -0.3087   -3.3403   -2.2471 H         1 <0>         0.1188
     50 H18         0.1137   -5.6202   -2.9442 H         1 <0>         0.1292
     51 H19         1.3955   -6.1128   -4.9849 H         1 <0>         0.1386
     52 H20         2.2659   -4.2574   -6.3618 H         1 <0>         0.1357
     53 H21         0.0112    1.4420   -2.8747 H         1 <0>         0.3823
     54 H22        -0.2000    0.9215    4.7106 H         1 <0>         0.1430
     55 H23         0.2967    0.8658    7.1187 H         1 <0>         0.1518
     56 H24        -3.1037   -1.6317    7.7774 H         1 <0>         0.1506
     57 H25        -3.6211   -1.5757    5.3736 H         1 <0>         0.1372
     58 H26        -4.2822    0.0472    3.3570 H         1 <0>         0.4633
@<TRIPOS>BOND
     1    1    2 1
     2    1   33 1
     3    1   34 1
     4    1   35 1
     5    2   10 1
     6    2   14 1
     7    2    3 1
     8    3    4 1
     9    3   36 1
    10    3   37 1
    11    4    8 1
    12    4    5 1
    13    5    6 2
    14    5   38 1
    15    6    7 1
    16    6   58 1
    17    7    8 2
    18    7   26 1
    19    8    9 1
    20    9   10 2
    21    9   39 1
    22   10   11 1
    23   11   12 1
    24   11   40 1
    25   11   41 1
    26   12   13 1
    27   12   42 1
    28   12   43 1
    29   13   14 1
    30   13   44 1
    31   13   45 1
    32   14   15 1
    33   14   46 1
    34   15   16 1
    35   15   25 1
    36   15   47 1
    37   16   20 1
    38   16   17 2
    39   17   18 1
    40   17   48 1
    41   18   19 1
    42   19   24 ar
    43   19   20 ar
    44   20   21 ar
    45   21   22 ar
    46   21   49 1
    47   22   23 ar
    48   22   50 1
    49   23   24 ar
    50   23   51 1
    51   24   52 1
    52   25   53 1
    53   26   31 ar
    54   26   27 ar
    55   27   28 ar
    56   27   54 1
    57   28   29 ar
    58   28   55 1
    59   29   30 ar
    60   29   32 1
    61   30   31 ar
    62   30   56 1
    63   31   57 1
@<TRIPOS>MOLECULE
CHEMBL569543__5
   57    62     0     0     0
SMALL
USER_CHARGES

@<TRIPOS>ATOM
      1 C1         -0.0187    1.5258    0.0104 C.3       1 <0>        -0.1460
      2 C2          0.0021   -0.0041    0.0020 C.3       1 <0>        -0.0189
      3 C3         -1.4314   -0.5280   -0.0744 C.3       1 <0>         0.1127
      4 N1         -2.0736   -0.3705    1.2311 N.pl3     1 <0>        -0.4551
      5 C4         -3.3487   -0.1404    1.5650 C.2       1 <0>         0.2095
      6 N2         -3.4569   -0.1007    2.8693 N.2       1 <0>        -0.4849
      7 C5         -2.2443   -0.2971    3.4331 C.2       1 <0>         0.0650
      8 C6         -1.3503   -0.4616    2.4109 C.2       1 <0>         0.0167
      9 C7          0.1008   -0.6794    2.3958 C.2       1 <0>        -0.0865
     10 C8          0.7318   -0.4988    1.2245 C.2       1 <0>        -0.1049
     11 C9          2.2124   -0.7768    1.1036 C.3       1 <0>        -0.0798
     12 C10         2.4384   -1.8723    0.0626 C.3       1 <0>        -0.1123
     13 C11         1.3090   -1.8976   -0.9610 C.3       1 <0>        -0.1238
     14 C12         0.7728   -0.4936   -1.2315 C.3       1 <0>        -0.0969
     15 C13        -0.1648   -0.5281   -2.4401 C.3       1 <0>         0.1595
     16 C14         0.5934   -1.0090   -3.6505 C.2       1 <0>        -0.1347
     17 C15         1.1413   -0.1284   -4.5002 C.2       1 <0>        -0.1475
     18 S1          1.9081   -1.1615   -5.7341 S.3       1 <0>         0.0400
     19 C16         1.4711   -2.7492   -5.0740 C.ar      1 <0>        -0.1128
     20 C17         0.7434   -2.4341   -3.9057 C.ar      1 <0>        -0.0809
     21 C18         0.2574   -3.5255   -3.1480 C.ar      1 <0>        -0.0778
     22 C19         0.4955   -4.8053   -3.5412 C.ar      1 <0>        -0.1199
     23 C20         1.2183   -5.0884   -4.6921 C.ar      1 <0>        -0.0918
     24 C21         1.7015   -4.0506   -5.4645 C.ar      1 <0>        -0.0766
     25 O1         -0.6726    0.7846   -2.6866 O.3       1 <0>        -0.5468
     26 C22        -1.9410   -0.3277    4.8824 C.ar      1 <0>        -0.0081
     27 C23        -0.9549   -1.1837    5.3730 C.ar      1 <0>        -0.0814
     28 C24        -0.6762   -1.2086    6.7238 C.ar      1 <0>        -0.1516
     29 C25        -1.3742   -0.3855    7.5929 C.ar      1 <0>         0.0974
     30 C26        -2.3550    0.4662    7.1105 C.ar      1 <0>        -0.1519
     31 C27        -2.6366    0.5034    5.7606 C.ar      1 <0>        -0.0640
     32 F1         -1.0979   -0.4139    8.9150 F         1 <0>        -0.1396
     33 H1          1.0039    1.9031    0.0027 H         1 <0>         0.0607
     34 H2         -0.5459    1.8868   -0.8726 H         1 <0>         0.0798
     35 H3         -0.5289    1.8773    0.9072 H         1 <0>         0.0564
     36 H4         -1.9861    0.0373   -0.8233 H         1 <0>         0.1124
     37 H5         -1.4192   -1.5827   -0.3490 H         1 <0>         0.0817
     38 H6         -4.1622   -0.0077    0.8671 H         1 <0>         0.2075
     39 H7          0.6369   -0.9824    3.2831 H         1 <0>         0.1419
     40 H8          2.7289    0.1316    0.7936 H         1 <0>         0.0745
     41 H9          2.6006   -1.1055    2.0676 H         1 <0>         0.0743
     42 H10         3.3823   -1.6887   -0.4507 H         1 <0>         0.0653
     43 H11         2.4875   -2.8384    0.5649 H         1 <0>         0.0667
     44 H12         1.6816   -2.3229   -1.8929 H         1 <0>         0.0815
     45 H13         0.4993   -2.5222   -0.5837 H         1 <0>         0.0617
     46 H14         1.6045    0.1815   -1.4332 H         1 <0>         0.0885
     47 H15        -0.9937   -1.2063   -2.2376 H         1 <0>         0.1095
     48 H16         1.1222    0.9502   -4.4495 H         1 <0>         0.1882
     49 H17        -0.3087   -3.3403   -2.2471 H         1 <0>         0.1234
     50 H18         0.1137   -5.6202   -2.9442 H         1 <0>         0.1288
     51 H19         1.3955   -6.1128   -4.9849 H         1 <0>         0.1361
     52 H20         2.2659   -4.2574   -6.3618 H         1 <0>         0.1328
     53 H21         0.0112    1.4420   -2.8747 H         1 <0>         0.3763
     54 H22        -0.4108   -1.8261    4.6965 H         1 <0>         0.1327
     55 H23         0.0871   -1.8710    7.1046 H         1 <0>         0.1376
     56 H24        -2.8968    1.1053    7.7920 H         1 <0>         0.1377
     57 H25        -3.3979    1.1710    5.3850 H         1 <0>         0.1374
@<TRIPOS>BOND
     1    1    2 1
     2    1   33 1
     3    1   34 1
     4    1   35 1
     5    2   10 1
     6    2   14 1
     7    2    3 1
     8    3    4 1
     9    3   36 1
    10    3   37 1
    11    4    8 1
    12    4    5 1
    13    5    6 2
    14    5   38 1
    15    6    7 1
    16    7    8 2
    17    7   26 1
    18    8    9 1
    19    9   10 2
    20    9   39 1
    21   10   11 1
    22   11   12 1
    23   11   40 1
    24   11   41 1
    25   12   13 1
    26   12   42 1
    27   12   43 1
    28   13   14 1
    29   13   44 1
    30   13   45 1
    31   14   15 1
    32   14   46 1
    33   15   16 1
    34   15   25 1
    35   15   47 1
    36   16   20 1
    37   16   17 2
    38   17   18 1
    39   17   48 1
    40   18   19 1
    41   19   24 ar
    42   19   20 ar
    43   20   21 ar
    44   21   22 ar
    45   21   49 1
    46   22   23 ar
    47   22   50 1
    48   23   24 ar
    49   23   51 1
    50   24   52 1
    51   25   53 1
    52   26   31 ar
    53   26   27 ar
    54   27   28 ar
    55   27   54 1
    56   28   29 ar
    57   28   55 1
    58   29   30 ar
    59   29   32 1
    60   30   31 ar
    61   30   56 1
    62   31   57 1
@<TRIPOS>MOLECULE
CHEMBL569543__6
   58    63     0     0     0
SMALL
USER_CHARGES

@<TRIPOS>ATOM
      1 C1          0.0448    1.5795   -0.0404 C.3       1 <0>        -0.1497
      2 C2          0.0173    0.0501   -0.0113 C.3       1 <0>        -0.0415
      3 C3         -1.4320   -0.4301   -0.0767 C.3       1 <0>         0.1041
      4 N1         -2.0696   -0.2204    1.2237 N.pl3     1 <0>        -0.4099
      5 C4         -3.3369    0.0578    1.5502 C.cat     1 <0>         0.3057
      6 N2         -3.4445    0.1329    2.8530 N.pl3     1 <0>        -0.4822
      7 C5         -2.2390   -0.0878    3.4230 C.2       1 <0>         0.0960
      8 C6         -1.3501   -0.3054    2.4063 C.2       1 <0>         0.0992
      9 C7          0.0934   -0.5692    2.3984 C.2       1 <0>        -0.1279
     10 C8          0.7304   -0.4373    1.2239 C.2       1 <0>        -0.0394
     11 C9          2.2015   -0.7648    1.1116 C.3       1 <0>        -0.0911
     12 C10         2.3933   -1.8920    0.0981 C.3       1 <0>        -0.1143
     13 C11         1.2643   -1.9067   -0.9261 C.3       1 <0>        -0.1298
     14 C12         0.7728   -0.4936   -1.2315 C.3       1 <0>        -0.1006
     15 C13        -0.1648   -0.5281   -2.4401 C.3       1 <0>         0.1615
     16 C14         0.6201   -0.8903   -3.6745 C.2       1 <0>        -0.1397
     17 C15         0.6745   -2.1629   -4.0932 C.2       1 <0>        -0.1489
     18 S1          1.6955   -2.0784   -5.5520 S.3       1 <0>         0.0566
     19 C16         2.0214   -0.3345   -5.5594 C.ar      1 <0>        -0.1127
     20 C17         1.3217    0.1387   -4.4278 C.ar      1 <0>        -0.0861
     21 C18         1.3949    1.5283   -4.1728 C.ar      1 <0>        -0.0825
     22 C19         2.1049    2.3488   -4.9924 C.ar      1 <0>        -0.1157
     23 C20         2.7803    1.8590   -6.1019 C.ar      1 <0>        -0.0891
     24 C21         2.7416    0.5067   -6.3797 C.ar      1 <0>        -0.0733
     25 O1         -1.1868   -1.5029   -2.2224 O.3       1 <0>        -0.5560
     26 C22        -1.9376   -0.0925    4.8730 C.ar      1 <0>        -0.0752
     27 C23        -0.8120    0.5751    5.3560 C.ar      1 <0>        -0.0499
     28 C24        -0.5356    0.5677    6.7074 C.ar      1 <0>        -0.1481
     29 C25        -1.3736   -0.1018    7.5847 C.ar      1 <0>         0.1366
     30 C26        -2.4927   -0.7669    7.1099 C.ar      1 <0>        -0.1479
     31 C27        -2.7814   -0.7598    5.7610 C.ar      1 <0>        -0.0634
     32 F1         -1.0984   -0.1065    8.9073 F         1 <0>        -0.1231
     33 H1          1.0788    1.9241   -0.0560 H         1 <0>         0.0795
     34 H2         -0.4702    1.9353   -0.9327 H         1 <0>         0.0736
     35 H3         -0.4545    1.9688    0.8469 H         1 <0>         0.0593
     36 H4         -1.9681    0.1339   -0.8400 H         1 <0>         0.1314
     37 H5         -1.4530   -1.4911   -0.3255 H         1 <0>         0.1388
     38 H6         -4.1455    0.1990    0.8482 H         1 <0>         0.2614
     39 H7          0.6192   -0.8671    3.2936 H         1 <0>         0.1633
     40 H8          2.7466    0.1190    0.7802 H         1 <0>         0.0889
     41 H9          2.5787   -1.0819    2.0839 H         1 <0>         0.0862
     42 H10         3.3428   -1.7509   -0.4183 H         1 <0>         0.0767
     43 H11         2.4117   -2.8466    0.6240 H         1 <0>         0.0745
     44 H12         1.6237   -2.3663   -1.8468 H         1 <0>         0.0826
     45 H13         0.4351   -2.4960   -0.5346 H         1 <0>         0.0638
     46 H14         1.6255    0.1498   -1.4486 H         1 <0>         0.1070
     47 H15        -0.6208    0.4527   -2.5743 H         1 <0>         0.1153
     48 H16         0.2106   -3.0323   -3.6514 H         1 <0>         0.1870
     49 H17         0.8809    1.9421   -3.3178 H         1 <0>         0.1201
     50 H18         2.1439    3.4061   -4.7754 H         1 <0>         0.1302
     51 H19         3.3378    2.5295   -6.7392 H         1 <0>         0.1389
     52 H20         3.2622    0.1131   -7.2401 H         1 <0>         0.1355
     53 H21        -0.8527   -2.4013   -2.0947 H         1 <0>         0.3800
     54 H22        -0.1579    1.0966    4.6729 H         1 <0>         0.1428
     55 H23         0.3356    1.0843    7.0823 H         1 <0>         0.1516
     56 H24        -3.1424   -1.2878    7.7975 H         1 <0>         0.1505
     57 H25        -3.6565   -1.2744    5.3924 H         1 <0>         0.1372
     58 H26        -4.2650    0.3187    3.3359 H         1 <0>         0.4625
@<TRIPOS>BOND
     1    1    2 1
     2    1   33 1
     3    1   34 1
     4    1   35 1
     5    2   10 1
     6    2   14 1
     7    2    3 1
     8    3    4 1
     9    3   36 1
    10    3   37 1
    11    4    8 1
    12    4    5 1
    13    5    6 2
    14    5   38 1
    15    6    7 1
    16    6   58 1
    17    7    8 2
    18    7   26 1
    19    8    9 1
    20    9   10 2
    21    9   39 1
    22   10   11 1
    23   11   12 1
    24   11   40 1
    25   11   41 1
    26   12   13 1
    27   12   42 1
    28   12   43 1
    29   13   14 1
    30   13   44 1
    31   13   45 1
    32   14   15 1
    33   14   46 1
    34   15   16 1
    35   15   25 1
    36   15   47 1
    37   16   20 1
    38   16   17 2
    39   17   18 1
    40   17   48 1
    41   18   19 1
    42   19   24 ar
    43   19   20 ar
    44   20   21 ar
    45   21   22 ar
    46   21   49 1
    47   22   23 ar
    48   22   50 1
    49   23   24 ar
    50   23   51 1
    51   24   52 1
    52   25   53 1
    53   26   31 ar
    54   26   27 ar
    55   27   28 ar
    56   27   54 1
    57   28   29 ar
    58   28   55 1
    59   29   30 ar
    60   29   32 1
    61   30   31 ar
    62   30   56 1
    63   31   57 1
@<TRIPOS>MOLECULE
CHEMBL569543__7
   57    62     0     0     0
SMALL
USER_CHARGES

@<TRIPOS>ATOM
      1 C1          0.0448    1.5795   -0.0404 C.3       1 <0>        -0.1423
      2 C2          0.0173    0.0501   -0.0113 C.3       1 <0>        -0.0254
      3 C3         -1.4320   -0.4301   -0.0767 C.3       1 <0>         0.1172
      4 N1         -2.0696   -0.2204    1.2237 N.pl3     1 <0>        -0.4549
      5 C4         -3.3369    0.0578    1.5502 C.2       1 <0>         0.2085
      6 N2         -3.4445    0.1329    2.8530 N.2       1 <0>        -0.4871
      7 C5         -2.2390   -0.0878    3.4230 C.2       1 <0>         0.0643
      8 C6         -1.3501   -0.3054    2.4063 C.2       1 <0>         0.0134
      9 C7          0.0934   -0.5692    2.3984 C.2       1 <0>        -0.0830
     10 C8          0.7304   -0.4373    1.2239 C.2       1 <0>        -0.1060
     11 C9          2.2015   -0.7648    1.1116 C.3       1 <0>        -0.0800
     12 C10         2.3933   -1.8920    0.0981 C.3       1 <0>        -0.1108
     13 C11         1.2643   -1.9067   -0.9261 C.3       1 <0>        -0.1239
     14 C12         0.7728   -0.4936   -1.2315 C.3       1 <0>        -0.0978
     15 C13        -0.1648   -0.5281   -2.4401 C.3       1 <0>         0.1616
     16 C14         0.6201   -0.8903   -3.6745 C.2       1 <0>        -0.1320
     17 C15         0.6745   -2.1629   -4.0932 C.2       1 <0>        -0.1488
     18 S1          1.6955   -2.0784   -5.5520 S.3       1 <0>         0.0401
     19 C16         2.0214   -0.3345   -5.5594 C.ar      1 <0>        -0.1122
     20 C17         1.3217    0.1387   -4.4278 C.ar      1 <0>        -0.0822
     21 C18         1.3949    1.5283   -4.1728 C.ar      1 <0>        -0.0781
     22 C19         2.1049    2.3488   -4.9924 C.ar      1 <0>        -0.1186
     23 C20         2.7803    1.8590   -6.1019 C.ar      1 <0>        -0.0925
     24 C21         2.7416    0.5067   -6.3797 C.ar      1 <0>        -0.0766
     25 O1         -1.1868   -1.5029   -2.2224 O.3       1 <0>        -0.5493
     26 C22        -1.9376   -0.0925    4.8730 C.ar      1 <0>        -0.0074
     27 C23        -0.9792   -0.9669    5.3857 C.ar      1 <0>        -0.0817
     28 C24        -0.7021   -0.9675    6.7370 C.ar      1 <0>        -0.1516
     29 C25        -1.3743   -0.1017    7.5848 C.ar      1 <0>         0.0968
     30 C26        -2.3275    0.7684    7.0805 C.ar      1 <0>        -0.1519
     31 C27        -2.6070    0.7814    5.7298 C.ar      1 <0>        -0.0645
     32 F1         -1.0997   -0.1064    8.9076 F         1 <0>        -0.1399
     33 H1          1.0788    1.9241   -0.0560 H         1 <0>         0.0653
     34 H2         -0.4702    1.9353   -0.9327 H         1 <0>         0.0607
     35 H3         -0.4545    1.9688    0.8469 H         1 <0>         0.0612
     36 H4         -1.9681    0.1339   -0.8400 H         1 <0>         0.1018
     37 H5         -1.4530   -1.4911   -0.3255 H         1 <0>         0.1070
     38 H6         -4.1455    0.1990    0.8482 H         1 <0>         0.2064
     39 H7          0.6192   -0.8671    3.2936 H         1 <0>         0.1414
     40 H8          2.7466    0.1190    0.7802 H         1 <0>         0.0745
     41 H9          2.5787   -1.0819    2.0839 H         1 <0>         0.0747
     42 H10         3.3428   -1.7509   -0.4183 H         1 <0>         0.0662
     43 H11         2.4117   -2.8466    0.6240 H         1 <0>         0.0675
     44 H12         1.6237   -2.3663   -1.8468 H         1 <0>         0.0717
     45 H13         0.4351   -2.4960   -0.5346 H         1 <0>         0.0642
     46 H14         1.6255    0.1498   -1.4486 H         1 <0>         0.0943
     47 H15        -0.6208    0.4527   -2.5743 H         1 <0>         0.1119
     48 H16         0.2106   -3.0323   -3.6514 H         1 <0>         0.1872
     49 H17         0.8809    1.9421   -3.3178 H         1 <0>         0.1231
     50 H18         2.1439    3.4061   -4.7754 H         1 <0>         0.1291
     51 H19         3.3378    2.5295   -6.7392 H         1 <0>         0.1361
     52 H20         3.2622    0.1131   -7.2401 H         1 <0>         0.1328
     53 H21        -0.8527   -2.4013   -2.0947 H         1 <0>         0.3750
     54 H22        -0.4553   -1.6425    4.7258 H         1 <0>         0.1327
     55 H23         0.0397   -1.6441    7.1349 H         1 <0>         0.1374
     56 H24        -2.8492    1.4408    7.7455 H         1 <0>         0.1375
     57 H25        -3.3467    1.4633    5.3369 H         1 <0>         0.1372
@<TRIPOS>BOND
     1    1    2 1
     2    1   33 1
     3    1   34 1
     4    1   35 1
     5    2   10 1
     6    2   14 1
     7    2    3 1
     8    3    4 1
     9    3   36 1
    10    3   37 1
    11    4    8 1
    12    4    5 1
    13    5    6 2
    14    5   38 1
    15    6    7 1
    16    7    8 2
    17    7   26 1
    18    8    9 1
    19    9   10 2
    20    9   39 1
    21   10   11 1
    22   11   12 1
    23   11   40 1
    24   11   41 1
    25   12   13 1
    26   12   42 1
    27   12   43 1
    28   13   14 1
    29   13   44 1
    30   13   45 1
    31   14   15 1
    32   14   46 1
    33   15   16 1
    34   15   25 1
    35   15   47 1
    36   16   20 1
    37   16   17 2
    38   17   18 1
    39   17   48 1
    40   18   19 1
    41   19   24 ar
    42   19   20 ar
    43   20   21 ar
    44   21   22 ar
    45   21   49 1
    46   22   23 ar
    47   22   50 1
    48   23   24 ar
    49   23   51 1
    50   24   52 1
    51   25   53 1
    52   26   31 ar
    53   26   27 ar
    54   27   28 ar
    55   27   54 1
    56   28   29 ar
    57   28   55 1
    58   29   30 ar
    59   29   32 1
    60   30   31 ar
    61   30   56 1
    62   31   57 1
@<TRIPOS>MOLECULE
CHEMBL569543__8
   58    63     0     0     0
SMALL
USER_CHARGES

@<TRIPOS>ATOM
      1 C1         -0.2684    1.6778    0.1146 C.3       1 <0>        -0.1497
      2 C2         -0.0695    0.1632    0.0293 C.3       1 <0>        -0.0415
      3 C3          0.6149   -0.1825   -1.2925 C.3       1 <0>         0.1042
      4 N1          2.0318    0.1741   -1.2106 N.pl3     1 <0>        -0.4099
      5 C4          2.8920    0.5914   -2.1467 C.cat     1 <0>         0.3057
      6 N2          4.0724    0.7649   -1.6071 N.pl3     1 <0>        -0.4821
      7 C5          4.0180    0.4717   -0.2888 C.2       1 <0>         0.0958
      8 C6          2.7297    0.1029   -0.0142 C.2       1 <0>         0.0991
      9 C7          2.0621   -0.2947    1.2306 C.2       1 <0>        -0.1279
     10 C8          0.7194   -0.3035    1.2258 C.2       1 <0>        -0.0389
     11 C9         -0.0457   -0.7742    2.4411 C.3       1 <0>        -0.0913
     12 C10        -0.9035   -1.9808    2.0633 C.3       1 <0>        -0.1142
     13 C11        -1.2573   -1.9596    0.5806 C.3       1 <0>        -0.1298
     14 C12        -1.4377   -0.5307    0.0729 C.3       1 <0>        -0.1008
     15 C13        -2.0416   -0.5597   -1.3325 C.3       1 <0>         0.1615
     16 C14        -3.4552   -1.0770   -1.2613 C.2       1 <0>        -0.1394
     17 C15        -3.7119   -2.3766   -1.4677 C.2       1 <0>        -0.1491
     18 S1         -5.4812   -2.4871   -1.2801 S.3       1 <0>         0.0566
     19 C16        -5.8277   -0.7829   -0.9292 C.ar      1 <0>        -0.1126
     20 C17        -4.5551   -0.1719   -0.9617 C.ar      1 <0>        -0.0862
     21 C18        -4.5133    1.2192   -0.7078 C.ar      1 <0>        -0.0825
     22 C19        -5.6531    1.9119   -0.4429 C.ar      1 <0>        -0.1157
     23 C20        -6.8920    1.2864   -0.4121 C.ar      1 <0>        -0.0890
     24 C21        -6.9763   -0.0688   -0.6644 C.ar      1 <0>        -0.0733
     25 O1         -1.2621   -1.4173   -2.1684 O.3       1 <0>        -0.5558
     26 C22         5.1405    0.5364    0.6752 C.ar      1 <0>        -0.0743
     27 C23         5.3483   -0.5063    1.5782 C.ar      1 <0>        -0.0513
     28 C24         6.3952   -0.4413    2.4741 C.ar      1 <0>        -0.1476
     29 C25         7.2393    0.6575    2.4784 C.ar      1 <0>         0.1365
     30 C26         7.0368    1.6961    1.5837 C.ar      1 <0>        -0.1476
     31 C27         5.9968    1.6375    0.6793 C.ar      1 <0>        -0.0634
     32 F1          8.2629    0.7167    3.3581 F         1 <0>        -0.1231
     33 H1          0.7032    2.1717    0.1264 H         1 <0>         0.0593
     34 H2         -0.8387    2.0186   -0.7495 H         1 <0>         0.0735
     35 H3         -0.8113    1.9222    1.0276 H         1 <0>         0.0793
     36 H4          0.5191   -1.2514   -1.4833 H         1 <0>         0.1391
     37 H5          0.1454    0.3758   -2.1024 H         1 <0>         0.1314
     38 H6          2.6502    0.7591   -3.1859 H         1 <0>         0.2614
     39 H7          2.6237   -0.5788    2.1082 H         1 <0>         0.1627
     40 H8          0.6561   -1.0581    3.2253 H         1 <0>         0.0862
     41 H9         -0.6876    0.0301    2.8008 H         1 <0>         0.0889
     42 H10        -0.3533   -2.8948    2.2866 H         1 <0>         0.0746
     43 H11        -1.8218   -1.9648    2.6504 H         1 <0>         0.0767
     44 H12        -0.4585   -2.4406    0.0163 H         1 <0>         0.0639
     45 H13        -2.1841   -2.5124    0.4270 H         1 <0>         0.0827
     46 H14        -2.1012    0.0137    0.7448 H         1 <0>         0.1070
     47 H15        -2.0440    0.4482   -1.7477 H         1 <0>         0.1152
     48 H16        -3.0131   -3.1682   -1.6944 H         1 <0>         0.1869
     49 H17        -3.5655    1.7368   -0.7241 H         1 <0>         0.1201
     50 H18        -5.5931    2.9731   -0.2519 H         1 <0>         0.1302
     51 H19        -7.7841    1.8566   -0.1992 H         1 <0>         0.1389
     52 H20        -7.9340   -0.5676   -0.6428 H         1 <0>         0.1355
     53 H21        -1.2158   -2.3323   -1.8589 H         1 <0>         0.3799
     54 H22         4.6905   -1.3629    1.5762 H         1 <0>         0.1426
     55 H23         6.5569   -1.2481    3.1737 H         1 <0>         0.1518
     56 H24         7.6970    2.5507    1.5914 H         1 <0>         0.1504
     57 H25         5.8426    2.4453   -0.0208 H         1 <0>         0.1371
     58 H26         4.8656    1.0592   -2.0816 H         1 <0>         0.4625
@<TRIPOS>BOND
     1    1    2 1
     2    1   33 1
     3    1   34 1
     4    1   35 1
     5    2   10 1
     6    2   14 1
     7    2    3 1
     8    3    4 1
     9    3   36 1
    10    3   37 1
    11    4    8 1
    12    4    5 1
    13    5    6 2
    14    5   38 1
    15    6    7 1
    16    6   58 1
    17    7    8 2
    18    7   26 1
    19    8    9 1
    20    9   10 2
    21    9   39 1
    22   10   11 1
    23   11   12 1
    24   11   40 1
    25   11   41 1
    26   12   13 1
    27   12   42 1
    28   12   43 1
    29   13   14 1
    30   13   44 1
    31   13   45 1
    32   14   15 1
    33   14   46 1
    34   15   16 1
    35   15   25 1
    36   15   47 1
    37   16   20 1
    38   16   17 2
    39   17   18 1
    40   17   48 1
    41   18   19 1
    42   19   24 ar
    43   19   20 ar
    44   20   21 ar
    45   21   22 ar
    46   21   49 1
    47   22   23 ar
    48   22   50 1
    49   23   24 ar
    50   23   51 1
    51   24   52 1
    52   25   53 1
    53   26   31 ar
    54   26   27 ar
    55   27   28 ar
    56   27   54 1
    57   28   29 ar
    58   28   55 1
    59   29   30 ar
    60   29   32 1
    61   30   31 ar
    62   30   56 1
    63   31   57 1
@<TRIPOS>MOLECULE
CHEMBL569543__9
   57    62     0     0     0
SMALL
USER_CHARGES

@<TRIPOS>ATOM
      1 C1         -0.2684    1.6778    0.1146 C.3       1 <0>        -0.1424
      2 C2         -0.0695    0.1632    0.0293 C.3       1 <0>        -0.0254
      3 C3          0.6149   -0.1825   -1.2925 C.3       1 <0>         0.1172
      4 N1          2.0318    0.1741   -1.2106 N.pl3     1 <0>        -0.4551
      5 C4          2.8920    0.5914   -2.1467 C.2       1 <0>         0.2086
      6 N2          4.0724    0.7649   -1.6071 N.2       1 <0>        -0.4872
      7 C5          4.0180    0.4717   -0.2888 C.2       1 <0>         0.0644
      8 C6          2.7297    0.1029   -0.0142 C.2       1 <0>         0.0136
      9 C7          2.0621   -0.2947    1.2306 C.2       1 <0>        -0.0826
     10 C8          0.7194   -0.3035    1.2258 C.2       1 <0>        -0.1065
     11 C9         -0.0457   -0.7742    2.4411 C.3       1 <0>        -0.0798
     12 C10        -0.9035   -1.9808    2.0633 C.3       1 <0>        -0.1108
     13 C11        -1.2573   -1.9596    0.5806 C.3       1 <0>        -0.1241
     14 C12        -1.4377   -0.5307    0.0729 C.3       1 <0>        -0.0978
     15 C13        -2.0416   -0.5597   -1.3325 C.3       1 <0>         0.1615
     16 C14        -3.4552   -1.0770   -1.2613 C.2       1 <0>        -0.1319
     17 C15        -3.7119   -2.3766   -1.4677 C.2       1 <0>        -0.1489
     18 S1         -5.4812   -2.4871   -1.2801 S.3       1 <0>         0.0401
     19 C16        -5.8277   -0.7829   -0.9292 C.ar      1 <0>        -0.1122
     20 C17        -4.5551   -0.1719   -0.9617 C.ar      1 <0>        -0.0822
     21 C18        -4.5133    1.2192   -0.7078 C.ar      1 <0>        -0.0781
     22 C19        -5.6531    1.9119   -0.4429 C.ar      1 <0>        -0.1186
     23 C20        -6.8920    1.2864   -0.4121 C.ar      1 <0>        -0.0925
     24 C21        -6.9763   -0.0688   -0.6644 C.ar      1 <0>        -0.0766
     25 O1         -1.2621   -1.4173   -2.1684 O.3       1 <0>        -0.5493
     26 C22         5.1405    0.5364    0.6752 C.ar      1 <0>        -0.0081
     27 C23         4.9076    0.9213    1.9956 C.ar      1 <0>        -0.0808
     28 C24         5.9565    0.9800    2.8896 C.ar      1 <0>        -0.1520
     29 C25         7.2397    0.6578    2.4779 C.ar      1 <0>         0.0969
     30 C26         7.4763    0.2753    1.1672 C.ar      1 <0>        -0.1522
     31 C27         6.4331    0.2070    0.2672 C.ar      1 <0>        -0.0644
     32 F1          8.2637    0.7173    3.3571 F         1 <0>        -0.1399
     33 H1          0.7032    2.1717    0.1264 H         1 <0>         0.0612
     34 H2         -0.8387    2.0186   -0.7495 H         1 <0>         0.0607
     35 H3         -0.8113    1.9222    1.0276 H         1 <0>         0.0654
     36 H4          0.5191   -1.2514   -1.4833 H         1 <0>         0.1069
     37 H5          0.1454    0.3758   -2.1024 H         1 <0>         0.1019
     38 H6          2.6502    0.7591   -3.1859 H         1 <0>         0.2063
     39 H7          2.6237   -0.5788    2.1082 H         1 <0>         0.1414
     40 H8          0.6561   -1.0581    3.2253 H         1 <0>         0.0748
     41 H9         -0.6876    0.0301    2.8008 H         1 <0>         0.0744
     42 H10        -0.3533   -2.8948    2.2866 H         1 <0>         0.0674
     43 H11        -1.8218   -1.9648    2.6504 H         1 <0>         0.0662
     44 H12        -0.4585   -2.4406    0.0163 H         1 <0>         0.0642
     45 H13        -2.1841   -2.5124    0.4270 H         1 <0>         0.0717
     46 H14        -2.1012    0.0137    0.7448 H         1 <0>         0.0944
     47 H15        -2.0440    0.4482   -1.7477 H         1 <0>         0.1119
     48 H16        -3.0131   -3.1682   -1.6944 H         1 <0>         0.1871
     49 H17        -3.5655    1.7368   -0.7241 H         1 <0>         0.1231
     50 H18        -5.5931    2.9731   -0.2519 H         1 <0>         0.1290
     51 H19        -7.7841    1.8566   -0.1992 H         1 <0>         0.1361
     52 H20        -7.9340   -0.5676   -0.6428 H         1 <0>         0.1328
     53 H21        -1.2158   -2.3323   -1.8589 H         1 <0>         0.3750
     54 H22         3.9079    1.1733    2.3173 H         1 <0>         0.1331
     55 H23         5.7772    1.2780    3.9121 H         1 <0>         0.1373
     56 H24         8.4784    0.0258    0.8510 H         1 <0>         0.1375
     57 H25         6.6177   -0.0959   -0.7529 H         1 <0>         0.1372
@<TRIPOS>BOND
     1    1    2 1
     2    1   33 1
     3    1   34 1
     4    1   35 1
     5    2   10 1
     6    2   14 1
     7    2    3 1
     8    3    4 1
     9    3   36 1
    10    3   37 1
    11    4    8 1
    12    4    5 1
    13    5    6 2
    14    5   38 1
    15    6    7 1
    16    7    8 2
    17    7   26 1
    18    8    9 1
    19    9   10 2
    20    9   39 1
    21   10   11 1
    22   11   12 1
    23   11   40 1
    24   11   41 1
    25   12   13 1
    26   12   42 1
    27   12   43 1
    28   13   14 1
    29   13   44 1
    30   13   45 1
    31   14   15 1
    32   14   46 1
    33   15   16 1
    34   15   25 1
    35   15   47 1
    36   16   20 1
    37   16   17 2
    38   17   18 1
    39   17   48 1
    40   18   19 1
    41   19   24 ar
    42   19   20 ar
    43   20   21 ar
    44   21   22 ar
    45   21   49 1
    46   22   23 ar
    47   22   50 1
    48   23   24 ar
    49   23   51 1
    50   24   52 1
    51   25   53 1
    52   26   31 ar
    53   26   27 ar
    54   27   28 ar
    55   27   54 1
    56   28   29 ar
    57   28   55 1
    58   29   30 ar
    59   29   32 1
    60   30   31 ar
    61   30   56 1
    62   31   57 1
@<TRIPOS>MOLECULE
CHEMBL569543__10
   58    63     0     0     0
SMALL
USER_CHARGES

@<TRIPOS>ATOM
      1 C1         -0.0187    1.5258    0.0104 C.3       1 <0>        -0.1533
      2 C2          0.0021   -0.0041    0.0020 C.3       1 <0>        -0.0352
      3 C3          0.6408   -0.4931   -1.2972 C.3       1 <0>         0.1006
      4 N1          2.0897   -0.3005   -1.2257 N.pl3     1 <0>        -0.4109
      5 C4          2.9921   -0.0338   -2.1769 C.cat     1 <0>         0.3078
      6 N2          4.1850    0.0278   -1.6404 N.pl3     1 <0>        -0.4804
      7 C5          4.0975   -0.1904   -0.3093 C.2       1 <0>         0.0959
      8 C6          2.7751   -0.3922   -0.0236 C.2       1 <0>         0.1028
      9 C7          2.0663   -0.6464    1.2360 C.2       1 <0>        -0.1314
     10 C8          0.7318   -0.4988    1.2245 C.2       1 <0>        -0.0375
     11 C9         -0.0824   -0.8154    2.4577 C.3       1 <0>        -0.0911
     12 C10        -1.0753   -1.9313    2.1361 C.3       1 <0>        -0.1156
     13 C11        -1.4250   -1.9435    0.6523 C.3       1 <0>        -0.1299
     14 C12        -1.4377   -0.5307    0.0729 C.3       1 <0>        -0.0998
     15 C13        -2.0416   -0.5597   -1.3325 C.3       1 <0>         0.1612
     16 C14        -3.4552   -1.0770   -1.2613 C.2       1 <0>        -0.1454
     17 C15        -4.4862   -0.2228   -1.1908 C.2       1 <0>        -0.1435
     18 S1         -5.9106   -1.2927   -1.1280 S.3       1 <0>         0.0579
     19 C16        -5.0813   -2.8595   -1.1982 C.ar      1 <0>        -0.1139
     20 C17        -3.7155   -2.5090   -1.2744 C.ar      1 <0>        -0.0843
     21 C18        -2.7904   -3.5768   -1.3477 C.ar      1 <0>        -0.0843
     22 C19        -3.2176   -4.8677   -1.3485 C.ar      1 <0>        -0.1170
     23 C20        -4.5670   -5.1857   -1.2776 C.ar      1 <0>        -0.0897
     24 C21        -5.5014   -4.1720   -1.1949 C.ar      1 <0>        -0.0719
     25 O1         -2.0448    0.7616   -1.8769 O.3       1 <0>        -0.5511
     26 C22         5.2204   -0.2086    0.6562 C.ar      1 <0>        -0.0749
     27 C23         5.3056   -1.2217    1.6113 C.ar      1 <0>        -0.0511
     28 C24         6.3534   -1.2343    2.5084 C.ar      1 <0>        -0.1475
     29 C25         7.3200   -0.2424    2.4622 C.ar      1 <0>         0.1370
     30 C26         7.2395    0.7664    1.5157 C.ar      1 <0>        -0.1476
     31 C27         6.1993    0.7840    0.6099 C.ar      1 <0>        -0.0630
     32 F1          8.3440   -0.2588    3.3433 F         1 <0>        -0.1229
     33 H1          1.0039    1.9031    0.0027 H         1 <0>         0.0546
     34 H2         -0.5459    1.8868   -0.8726 H         1 <0>         0.0915
     35 H3         -0.5289    1.8773    0.9072 H         1 <0>         0.0750
     36 H4          0.4208   -1.5518   -1.4349 H         1 <0>         0.1158
     37 H5          0.2392    0.0747   -2.1365 H         1 <0>         0.1409
     38 H6          2.7710    0.1086   -3.2244 H         1 <0>         0.2625
     39 H7          2.5915   -0.9495    2.1297 H         1 <0>         0.1632
     40 H8          0.5820   -1.1395    3.2588 H         1 <0>         0.0857
     41 H9         -0.6258    0.0752    2.7733 H         1 <0>         0.0889
     42 H10        -0.6353   -2.8909    2.4077 H         1 <0>         0.0738
     43 H11        -1.9851   -1.7789    2.7167 H         1 <0>         0.0757
     44 H12        -0.6880   -2.5421    0.1170 H         1 <0>         0.0616
     45 H13        -2.4100   -2.3916    0.5216 H         1 <0>         0.0929
     46 H14        -2.0328    0.1204    0.7132 H         1 <0>         0.1005
     47 H15        -1.4470   -1.2139   -1.9701 H         1 <0>         0.1078
     48 H16        -4.4599    0.8568   -1.1752 H         1 <0>         0.1891
     49 H17        -1.7330   -3.3642   -1.4040 H         1 <0>         0.1188
     50 H18        -2.4903   -5.6640   -1.4060 H         1 <0>         0.1292
     51 H19        -4.8834   -6.2183   -1.2801 H         1 <0>         0.1386
     52 H20        -6.5543   -4.4060   -1.1399 H         1 <0>         0.1357
     53 H21        -2.5561    1.3989   -1.3596 H         1 <0>         0.3824
     54 H22         4.5524   -1.9948    1.6485 H         1 <0>         0.1426
     55 H23         6.4203   -2.0182    3.2482 H         1 <0>         0.1519
     56 H24         7.9950    1.5376    1.4842 H         1 <0>         0.1507
     57 H25         6.1401    1.5680   -0.1306 H         1 <0>         0.1373
     58 H26         5.0068    0.2035   -2.1247 H         1 <0>         0.4633
@<TRIPOS>BOND
     1    1    2 1
     2    1   33 1
     3    1   34 1
     4    1   35 1
     5    2   10 1
     6    2   14 1
     7    2    3 1
     8    3    4 1
     9    3   36 1
    10    3   37 1
    11    4    8 1
    12    4    5 1
    13    5    6 2
    14    5   38 1
    15    6    7 1
    16    6   58 1
    17    7    8 2
    18    7   26 1
    19    8    9 1
    20    9   10 2
    21    9   39 1
    22   10   11 1
    23   11   12 1
    24   11   40 1
    25   11   41 1
    26   12   13 1
    27   12   42 1
    28   12   43 1
    29   13   14 1
    30   13   44 1
    31   13   45 1
    32   14   15 1
    33   14   46 1
    34   15   16 1
    35   15   25 1
    36   15   47 1
    37   16   20 1
    38   16   17 2
    39   17   18 1
    40   17   48 1
    41   18   19 1
    42   19   24 ar
    43   19   20 ar
    44   20   21 ar
    45   21   22 ar
    46   21   49 1
    47   22   23 ar
    48   22   50 1
    49   23   24 ar
    50   23   51 1
    51   24   52 1
    52   25   53 1
    53   26   31 ar
    54   26   27 ar
    55   27   28 ar
    56   27   54 1
    57   28   29 ar
    58   28   55 1
    59   29   30 ar
    60   29   32 1
    61   30   31 ar
    62   30   56 1
    63   31   57 1
@<TRIPOS>MOLECULE
CHEMBL569543__11
   57    62     0     0     0
SMALL
USER_CHARGES

@<TRIPOS>ATOM
      1 C1         -0.0187    1.5258    0.0104 C.3       1 <0>        -0.1460
      2 C2          0.0021   -0.0041    0.0020 C.3       1 <0>        -0.0189
      3 C3          0.6408   -0.4931   -1.2972 C.3       1 <0>         0.1126
      4 N1          2.0897   -0.3005   -1.2257 N.pl3     1 <0>        -0.4551
      5 C4          2.9921   -0.0338   -2.1769 C.2       1 <0>         0.2096
      6 N2          4.1850    0.0278   -1.6404 N.2       1 <0>        -0.4850
      7 C5          4.0975   -0.1904   -0.3093 C.2       1 <0>         0.0651
      8 C6          2.7751   -0.3922   -0.0236 C.2       1 <0>         0.0169
      9 C7          2.0663   -0.6464    1.2360 C.2       1 <0>        -0.0861
     10 C8          0.7318   -0.4988    1.2245 C.2       1 <0>        -0.1054
     11 C9         -0.0824   -0.8154    2.4577 C.3       1 <0>        -0.0797
     12 C10        -1.0753   -1.9313    2.1361 C.3       1 <0>        -0.1123
     13 C11        -1.4250   -1.9435    0.6523 C.3       1 <0>        -0.1238
     14 C12        -1.4377   -0.5307    0.0729 C.3       1 <0>        -0.0967
     15 C13        -2.0416   -0.5597   -1.3325 C.3       1 <0>         0.1595
     16 C14        -3.4552   -1.0770   -1.2613 C.2       1 <0>        -0.1348
     17 C15        -4.4862   -0.2228   -1.1908 C.2       1 <0>        -0.1474
     18 S1         -5.9106   -1.2927   -1.1280 S.3       1 <0>         0.0400
     19 C16        -5.0813   -2.8595   -1.1982 C.ar      1 <0>        -0.1128
     20 C17        -3.7155   -2.5090   -1.2744 C.ar      1 <0>        -0.0809
     21 C18        -2.7904   -3.5768   -1.3477 C.ar      1 <0>        -0.0779
     22 C19        -3.2176   -4.8677   -1.3485 C.ar      1 <0>        -0.1199
     23 C20        -4.5670   -5.1857   -1.2776 C.ar      1 <0>        -0.0917
     24 C21        -5.5014   -4.1720   -1.1949 C.ar      1 <0>        -0.0767
     25 O1         -2.0448    0.7616   -1.8769 O.3       1 <0>        -0.5468
     26 C22         5.2204   -0.2086    0.6562 C.ar      1 <0>        -0.0088
     27 C23         5.0347    0.2667    1.9544 C.ar      1 <0>        -0.0803
     28 C24         6.0837    0.2476    2.8500 C.ar      1 <0>        -0.1519
     29 C25         7.3204   -0.2422    2.4617 C.ar      1 <0>         0.0974
     30 C26         7.5101   -0.7151    1.1731 C.ar      1 <0>        -0.1522
     31 C27         6.4655   -0.7065    0.2721 C.ar      1 <0>        -0.0641
     32 F1          8.3448   -0.2584    3.3424 F         1 <0>        -0.1397
     33 H1          1.0039    1.9031    0.0027 H         1 <0>         0.0564
     34 H2         -0.5459    1.8868   -0.8726 H         1 <0>         0.0798
     35 H3         -0.5289    1.8773    0.9072 H         1 <0>         0.0608
     36 H4          0.4208   -1.5518   -1.4349 H         1 <0>         0.0815
     37 H5          0.2392    0.0747   -2.1365 H         1 <0>         0.1124
     38 H6          2.7710    0.1086   -3.2244 H         1 <0>         0.2075
     39 H7          2.5915   -0.9495    2.1297 H         1 <0>         0.1419
     40 H8          0.5820   -1.1395    3.2588 H         1 <0>         0.0744
     41 H9         -0.6258    0.0752    2.7733 H         1 <0>         0.0744
     42 H10        -0.6353   -2.8909    2.4077 H         1 <0>         0.0667
     43 H11        -1.9851   -1.7789    2.7167 H         1 <0>         0.0653
     44 H12        -0.6880   -2.5421    0.1170 H         1 <0>         0.0616
     45 H13        -2.4100   -2.3916    0.5216 H         1 <0>         0.0815
     46 H14        -2.0328    0.1204    0.7132 H         1 <0>         0.0885
     47 H15        -1.4470   -1.2139   -1.9701 H         1 <0>         0.1095
     48 H16        -4.4599    0.8568   -1.1752 H         1 <0>         0.1883
     49 H17        -1.7330   -3.3642   -1.4040 H         1 <0>         0.1234
     50 H18        -2.4903   -5.6640   -1.4060 H         1 <0>         0.1288
     51 H19        -4.8834   -6.2183   -1.2801 H         1 <0>         0.1361
     52 H20        -6.5543   -4.4060   -1.1399 H         1 <0>         0.1328
     53 H21        -2.5561    1.3989   -1.3596 H         1 <0>         0.3763
     54 H22         4.0714    0.6493    2.2578 H         1 <0>         0.1333
     55 H23         5.9410    0.6154    3.8554 H         1 <0>         0.1375
     56 H24         8.4760   -1.0952    0.8751 H         1 <0>         0.1377
     57 H25         6.6130   -1.0797   -0.7306 H         1 <0>         0.1372
@<TRIPOS>BOND
     1    1    2 1
     2    1   33 1
     3    1   34 1
     4    1   35 1
     5    2   10 1
     6    2   14 1
     7    2    3 1
     8    3    4 1
     9    3   36 1
    10    3   37 1
    11    4    8 1
    12    4    5 1
    13    5    6 2
    14    5   38 1
    15    6    7 1
    16    7    8 2
    17    7   26 1
    18    8    9 1
    19    9   10 2
    20    9   39 1
    21   10   11 1
    22   11   12 1
    23   11   40 1
    24   11   41 1
    25   12   13 1
    26   12   42 1
    27   12   43 1
    28   13   14 1
    29   13   44 1
    30   13   45 1
    31   14   15 1
    32   14   46 1
    33   15   16 1
    34   15   25 1
    35   15   47 1
    36   16   20 1
    37   16   17 2
    38   17   18 1
    39   17   48 1
    40   18   19 1
    41   19   24 ar
    42   19   20 ar
    43   20   21 ar
    44   21   22 ar
    45   21   49 1
    46   22   23 ar
    47   22   50 1
    48   23   24 ar
    49   23   51 1
    50   24   52 1
    51   25   53 1
    52   26   31 ar
    53   26   27 ar
    54   27   28 ar
    55   27   54 1
    56   28   29 ar
    57   28   55 1
    58   29   30 ar
    59   29   32 1
    60   30   31 ar
    61   30   56 1
    62   31   57 1
@<TRIPOS>MOLECULE
CHEMBL569543__12
   58    63     0     0     0
SMALL
USER_CHARGES

@<TRIPOS>ATOM
      1 C1         -0.4535    1.8161    0.3411 C.3       1 <0>        -0.1620
      2 C2         -0.1059    0.3361    0.1682 C.3       1 <0>        -0.0309
      3 C3          0.5931    0.1657   -1.1894 C.3       1 <0>         0.0651
      4 N1          1.9641   -0.3608   -1.1826 N.pl3     1 <0>        -0.4018
      5 C4          2.8514   -0.5923   -2.1731 C.cat     1 <0>         0.2913
      6 N2          3.9584   -1.0581   -1.6642 N.pl3     1 <0>        -0.4674
      7 C5          3.8358   -1.1525   -0.3273 C.2       1 <0>         0.0844
      8 C6          2.5612   -0.7148    0.0029 C.2       1 <0>         0.1093
      9 C7          1.8695   -0.6087    1.2883 C.2       1 <0>        -0.1372
     10 C8          0.6472   -0.1170    1.4005 C.2       1 <0>        -0.0258
     11 C9         -0.0452   -0.0444    2.7395 C.3       1 <0>        -0.0900
     12 C10        -1.3871   -0.7785    2.6277 C.3       1 <0>        -0.1176
     13 C11        -2.1788   -0.2153    1.4465 C.3       1 <0>        -0.1285
     14 C12        -1.4154   -0.4530    0.1421 C.3       1 <0>        -0.1015
     15 C13        -2.2680    0.0122   -1.0401 C.3       1 <0>         0.1568
     16 C14        -3.6385   -0.6071   -0.9455 C.2       1 <0>        -0.1382
     17 C15        -3.9150   -1.7432   -1.6016 C.2       1 <0>        -0.1549
     18 S1         -5.6180   -2.0627   -1.1826 S.3       1 <0>         0.0576
     19 C16        -5.9120   -0.6601   -0.1368 C.ar      1 <0>        -0.1128
     20 C17        -4.6738    0.0187   -0.1361 C.ar      1 <0>        -0.0847
     21 C18        -4.6008    1.2030    0.6345 C.ar      1 <0>        -0.0818
     22 C19        -5.6794    1.6437    1.3353 C.ar      1 <0>        -0.1163
     23 C20        -6.8846    0.9549    1.3218 C.ar      1 <0>        -0.0876
     24 C21        -6.9995   -0.2004    0.5739 C.ar      1 <0>        -0.0740
     25 O1         -1.6469   -0.3898   -2.2626 O.3       1 <0>        -0.5456
     26 C22         4.8699   -1.6351    0.6167 C.ar      1 <0>        -0.0741
     27 C23         4.5296   -2.5339    1.6278 C.ar      1 <0>        -0.0520
     28 C24         5.4964   -2.9803    2.5046 C.ar      1 <0>        -0.1475
     29 C25         6.8036   -2.5372    2.3826 C.ar      1 <0>         0.1360
     30 C26         7.1466   -1.6441    1.3802 C.ar      1 <0>        -0.1472
     31 C27         6.1885   -1.1968    0.4943 C.ar      1 <0>        -0.0643
     32 F1          7.7468   -2.9770    3.2441 F         1 <0>        -0.1231
     33 H1          0.4638    2.3939    0.4543 H         1 <0>         0.0680
     34 H2         -0.9977    2.1663   -0.5360 H         1 <0>         0.0762
     35 H3         -1.0743    1.9423    1.2282 H         1 <0>         0.0847
     36 H4         -0.0178   -0.5005   -1.7986 H         1 <0>         0.1599
     37 H5          0.6111    1.1386   -1.6806 H         1 <0>         0.1155
     38 H6          2.6724   -0.4194   -3.2240 H         1 <0>         0.2624
     39 H7          2.3853   -0.9260    2.1826 H         1 <0>         0.1517
     40 H8          0.5731   -0.5225    3.4992 H         1 <0>         0.0879
     41 H9         -0.2177    0.9979    3.0079 H         1 <0>         0.0938
     42 H10        -1.2076   -1.8421    2.4708 H         1 <0>         0.0690
     43 H11        -1.9560   -0.6377    3.5467 H         1 <0>         0.0822
     44 H12        -3.1489   -0.7095    1.3929 H         1 <0>         0.0875
     45 H13        -2.3277    0.8551    1.5885 H         1 <0>         0.0799
     46 H14        -1.1972   -1.5158    0.0371 H         1 <0>         0.0860
     47 H15        -2.3577    1.0983   -1.0181 H         1 <0>         0.1218
     48 H16        -3.2616   -2.3259   -2.2339 H         1 <0>         0.1863
     49 H17        -3.6779    1.7630    0.6667 H         1 <0>         0.1232
     50 H18        -5.5966    2.5504    1.9162 H         1 <0>         0.1309
     51 H19        -7.7282    1.3235    1.8865 H         1 <0>         0.1389
     52 H20        -7.9314   -0.7460    0.5555 H         1 <0>         0.1353
     53 H21        -1.6290   -1.3471   -2.3985 H         1 <0>         0.3791
     54 H22         3.5109   -2.8793    1.7242 H         1 <0>         0.1426
     55 H23         5.2339   -3.6762    3.2878 H         1 <0>         0.1516
     56 H24         8.1667   -1.3011    1.2897 H         1 <0>         0.1505
     57 H25         6.4578   -0.5044   -0.2896 H         1 <0>         0.1371
     58 H26         4.7489   -1.2998   -2.1717 H         1 <0>         0.4642
@<TRIPOS>BOND
     1    1    2 1
     2    1   33 1
     3    1   34 1
     4    1   35 1
     5    2   10 1
     6    2   14 1
     7    2    3 1
     8    3    4 1
     9    3   36 1
    10    3   37 1
    11    4    8 1
    12    4    5 1
    13    5    6 2
    14    5   38 1
    15    6    7 1
    16    6   58 1
    17    7    8 2
    18    7   26 1
    19    8    9 1
    20    9   10 2
    21    9   39 1
    22   10   11 1
    23   11   12 1
    24   11   40 1
    25   11   41 1
    26   12   13 1
    27   12   42 1
    28   12   43 1
    29   13   14 1
    30   13   44 1
    31   13   45 1
    32   14   15 1
    33   14   46 1
    34   15   16 1
    35   15   25 1
    36   15   47 1
    37   16   20 1
    38   16   17 2
    39   17   18 1
    40   17   48 1
    41   18   19 1
    42   19   24 ar
    43   19   20 ar
    44   20   21 ar
    45   21   22 ar
    46   21   49 1
    47   22   23 ar
    48   22   50 1
    49   23   24 ar
    50   23   51 1
    51   24   52 1
    52   25   53 1
    53   26   31 ar
    54   26   27 ar
    55   27   28 ar
    56   27   54 1
    57   28   29 ar
    58   28   55 1
    59   29   30 ar
    60   29   32 1
    61   30   31 ar
    62   30   56 1
    63   31   57 1
@<TRIPOS>MOLECULE
CHEMBL569543__13
   57    62     0     0     0
SMALL
USER_CHARGES

@<TRIPOS>ATOM
      1 C1         -0.4535    1.8161    0.3411 C.3       1 <0>        -0.1547
      2 C2         -0.1059    0.3361    0.1682 C.3       1 <0>        -0.0149
      3 C3          0.5931    0.1657   -1.1894 C.3       1 <0>         0.0782
      4 N1          1.9641   -0.3608   -1.1826 N.pl3     1 <0>        -0.4459
      5 C4          2.8514   -0.5923   -2.1731 C.2       1 <0>         0.2003
      6 N2          3.9584   -1.0581   -1.6642 N.2       1 <0>        -0.4753
      7 C5          3.8358   -1.1525   -0.3273 C.2       1 <0>         0.0548
      8 C6          2.5612   -0.7148    0.0029 C.2       1 <0>         0.0179
      9 C7          1.8695   -0.6087    1.2883 C.2       1 <0>        -0.0849
     10 C8          0.6472   -0.1170    1.4005 C.2       1 <0>        -0.1004
     11 C9         -0.0452   -0.0444    2.7395 C.3       1 <0>        -0.0773
     12 C10        -1.3871   -0.7785    2.6277 C.3       1 <0>        -0.1155
     13 C11        -2.1788   -0.2153    1.4465 C.3       1 <0>        -0.1225
     14 C12        -1.4154   -0.4530    0.1421 C.3       1 <0>        -0.0991
     15 C13        -2.2680    0.0122   -1.0401 C.3       1 <0>         0.1567
     16 C14        -3.6385   -0.6071   -0.9455 C.2       1 <0>        -0.1322
     17 C15        -3.9150   -1.7432   -1.6016 C.2       1 <0>        -0.1536
     18 S1         -5.6180   -2.0627   -1.1826 S.3       1 <0>         0.0427
     19 C16        -5.9120   -0.6601   -0.1368 C.ar      1 <0>        -0.1131
     20 C17        -4.6738    0.0187   -0.1361 C.ar      1 <0>        -0.0794
     21 C18        -4.6008    1.2030    0.6345 C.ar      1 <0>        -0.0776
     22 C19        -5.6794    1.6437    1.3353 C.ar      1 <0>        -0.1196
     23 C20        -6.8846    0.9549    1.3218 C.ar      1 <0>        -0.0918
     24 C21        -6.9995   -0.2004    0.5739 C.ar      1 <0>        -0.0767
     25 O1         -1.6469   -0.3898   -2.2626 O.3       1 <0>        -0.5420
     26 C22         4.8699   -1.6351    0.6167 C.ar      1 <0>        -0.0066
     27 C23         4.9748   -1.0708    1.8881 C.ar      1 <0>        -0.0826
     28 C24         5.9396   -1.5237    2.7637 C.ar      1 <0>        -0.1513
     29 C25         6.8041   -2.5372    2.3821 C.ar      1 <0>         0.0961
     30 C26         6.7042   -3.1008    1.1201 C.ar      1 <0>        -0.1517
     31 C27         5.7385   -2.6594    0.2396 C.ar      1 <0>        -0.0655
     32 F1          7.7476   -2.9771    3.2431 F         1 <0>        -0.1399
     33 H1          0.4638    2.3939    0.4543 H         1 <0>         0.0625
     34 H2         -0.9977    2.1663   -0.5360 H         1 <0>         0.0651
     35 H3         -1.0743    1.9423    1.2282 H         1 <0>         0.0728
     36 H4         -0.0178   -0.5005   -1.7986 H         1 <0>         0.1326
     37 H5          0.6111    1.1386   -1.6806 H         1 <0>         0.0842
     38 H6          2.6724   -0.4194   -3.2240 H         1 <0>         0.2082
     39 H7          2.3853   -0.9260    2.1826 H         1 <0>         0.1305
     40 H8          0.5731   -0.5225    3.4992 H         1 <0>         0.0764
     41 H9         -0.2177    0.9979    3.0079 H         1 <0>         0.0789
     42 H10        -1.2076   -1.8421    2.4708 H         1 <0>         0.0646
     43 H11        -1.9560   -0.6377    3.5467 H         1 <0>         0.0710
     44 H12        -3.1489   -0.7095    1.3929 H         1 <0>         0.0767
     45 H13        -2.3277    0.8551    1.5885 H         1 <0>         0.0745
     46 H14        -1.1972   -1.5158    0.0371 H         1 <0>         0.0805
     47 H15        -2.3577    1.0983   -1.0181 H         1 <0>         0.1173
     48 H16        -3.2616   -2.3259   -2.2339 H         1 <0>         0.1873
     49 H17        -3.6779    1.7630    0.6667 H         1 <0>         0.1253
     50 H18        -5.5966    2.5504    1.9162 H         1 <0>         0.1291
     51 H19        -7.7282    1.3235    1.8865 H         1 <0>         0.1359
     52 H20        -7.9314   -0.7460    0.5555 H         1 <0>         0.1326
     53 H21        -1.6290   -1.3471   -2.3985 H         1 <0>         0.3768
     54 H22         4.3020   -0.2803    2.1862 H         1 <0>         0.1328
     55 H23         6.0217   -1.0875    3.7483 H         1 <0>         0.1373
     56 H24         7.3808   -3.8900    0.8271 H         1 <0>         0.1375
     57 H25         5.6583   -3.1025   -0.7421 H         1 <0>         0.1371
@<TRIPOS>BOND
     1    1    2 1
     2    1   33 1
     3    1   34 1
     4    1   35 1
     5    2   10 1
     6    2   14 1
     7    2    3 1
     8    3    4 1
     9    3   36 1
    10    3   37 1
    11    4    8 1
    12    4    5 1
    13    5    6 2
    14    5   38 1
    15    6    7 1
    16    7    8 2
    17    7   26 1
    18    8    9 1
    19    9   10 2
    20    9   39 1
    21   10   11 1
    22   11   12 1
    23   11   40 1
    24   11   41 1
    25   12   13 1
    26   12   42 1
    27   12   43 1
    28   13   14 1
    29   13   44 1
    30   13   45 1
    31   14   15 1
    32   14   46 1
    33   15   16 1
    34   15   25 1
    35   15   47 1
    36   16   20 1
    37   16   17 2
    38   17   18 1
    39   17   48 1
    40   18   19 1
    41   19   24 ar
    42   19   20 ar
    43   20   21 ar
    44   21   22 ar
    45   21   49 1
    46   22   23 ar
    47   22   50 1
    48   23   24 ar
    49   23   51 1
    50   24   52 1
    51   25   53 1
    52   26   31 ar
    53   26   27 ar
    54   27   28 ar
    55   27   54 1
    56   28   29 ar
    57   28   55 1
    58   29   30 ar
    59   29   32 1
    60   30   31 ar
    61   30   56 1
    62   31   57 1
@<TRIPOS>MOLECULE
CHEMBL569543__14
   58    63     0     0     0
SMALL
USER_CHARGES

@<TRIPOS>ATOM
      1 C1          0.2274    1.2518   -0.3206 C.3       1 <0>        -0.1587
      2 C2          0.0328   -0.2548   -0.1378 C.3       1 <0>        -0.0320
      3 C3          0.2783   -0.9354   -1.4933 C.3       1 <0>         0.0971
      4 N1          1.3672   -1.9180   -1.5691 N.pl3     1 <0>        -0.4084
      5 C4          1.8574   -2.6511   -2.5910 C.cat     1 <0>         0.2928
      6 N2          2.8498   -3.3821   -2.1640 N.pl3     1 <0>        -0.4646
      7 C5          3.0425   -3.1587   -0.8510 C.2       1 <0>         0.0855
      8 C6          2.0979   -2.2258   -0.4473 C.2       1 <0>         0.1158
      9 C7          1.8208   -1.6205    0.8560 C.2       1 <0>        -0.1414
     10 C8          0.8866   -0.7009    1.0297 C.2       1 <0>        -0.0212
     11 C9          0.6116   -0.1152    2.3930 C.3       1 <0>        -0.0896
     12 C10        -0.8767   -0.3091    2.7087 C.3       1 <0>        -0.1157
     13 C11        -1.7181    0.2613    1.5659 C.3       1 <0>        -0.1326
     14 C12        -1.4217   -0.4937    0.2686 C.3       1 <0>        -0.1064
     15 C13        -2.3501    0.0100   -0.8383 C.3       1 <0>         0.1644
     16 C14        -3.7720   -0.3678   -0.5120 C.2       1 <0>        -0.1457
     17 C15        -4.5785    0.5040    0.1104 C.2       1 <0>        -0.1421
     18 S1         -6.1141   -0.3876    0.2673 S.3       1 <0>         0.0600
     19 C16        -5.6301   -1.9082   -0.5080 C.ar      1 <0>        -0.1141
     20 C17        -4.2856   -1.6805   -0.8745 C.ar      1 <0>        -0.0831
     21 C18        -3.6197   -2.7415   -1.5320 C.ar      1 <0>        -0.0862
     22 C19        -4.2631   -3.9108   -1.7923 C.ar      1 <0>        -0.1162
     23 C20        -5.5875   -4.1077   -1.4256 C.ar      1 <0>        -0.0919
     24 C21        -6.2698   -3.0997   -0.7731 C.ar      1 <0>        -0.0695
     25 O1         -2.2458    1.4317   -0.9373 O.3       1 <0>        -0.5437
     26 C22         4.0717   -3.7921    0.0051 C.ar      1 <0>        -0.0753
     27 C23         3.7286   -4.2833    1.2648 C.ar      1 <0>        -0.0514
     28 C24         4.6910   -4.8723    2.0584 C.ar      1 <0>        -0.1474
     29 C25         5.9967   -4.9761    1.6063 C.ar      1 <0>         0.1370
     30 C26         6.3427   -4.4893    0.3559 C.ar      1 <0>        -0.1472
     31 C27         5.3862   -3.9045   -0.4480 C.ar      1 <0>        -0.0637
     32 F1          6.9357   -5.5534    2.3874 F         1 <0>        -0.1228
     33 H1          1.2918    1.4741   -0.3960 H         1 <0>         0.0575
     34 H2         -0.2768    1.5754   -1.2312 H         1 <0>         0.0989
     35 H3         -0.1942    1.7790    0.5351 H         1 <0>         0.0818
     36 H4         -0.6443   -1.4354   -1.7882 H         1 <0>         0.1137
     37 H5          0.4802   -0.1553   -2.2274 H         1 <0>         0.1238
     38 H6          1.4853   -2.6354   -3.6047 H         1 <0>         0.2633
     39 H7          2.4159   -1.9224    1.7052 H         1 <0>         0.1530
     40 H8          1.2158   -0.6276    3.1417 H         1 <0>         0.0885
     41 H9          0.8514    0.9481    2.3914 H         1 <0>         0.0954
     42 H10        -1.0890   -1.3723    2.8206 H         1 <0>         0.0699
     43 H11        -1.1224    0.2101    3.6350 H         1 <0>         0.0834
     44 H12        -2.7756    0.1597    1.8099 H         1 <0>         0.0828
     45 H13        -1.4794    1.3165    1.4328 H         1 <0>         0.0804
     46 H14        -1.5855   -1.5602    0.4233 H         1 <0>         0.0909
     47 H15        -2.0627   -0.4424   -1.7874 H         1 <0>         0.1054
     48 H16        -4.3516    1.5074    0.4390 H         1 <0>         0.1896
     49 H17        -2.5888   -2.6213   -1.8309 H         1 <0>         0.1111
     50 H18        -3.7317   -4.7046   -2.2962 H         1 <0>         0.1274
     51 H19        -6.0785   -5.0447   -1.6429 H         1 <0>         0.1388
     52 H20        -7.3006   -3.2400   -0.4831 H         1 <0>         0.1364
     53 H21        -2.4869    1.9012   -0.1271 H         1 <0>         0.3783
     54 H22         2.7114   -4.2022    1.6183 H         1 <0>         0.1428
     55 H23         4.4264   -5.2529    3.0338 H         1 <0>         0.1519
     56 H24         7.3619   -4.5719    0.0083 H         1 <0>         0.1508
     57 H25         5.6558   -3.5297   -1.4243 H         1 <0>         0.1373
     58 H26         3.3692   -3.9934   -2.7094 H         1 <0>         0.4653
@<TRIPOS>BOND
     1    1    2 1
     2    1   33 1
     3    1   34 1
     4    1   35 1
     5    2   10 1
     6    2   14 1
     7    2    3 1
     8    3    4 1
     9    3   36 1
    10    3   37 1
    11    4    8 1
    12    4    5 1
    13    5    6 2
    14    5   38 1
    15    6    7 1
    16    6   58 1
    17    7    8 2
    18    7   26 1
    19    8    9 1
    20    9   10 2
    21    9   39 1
    22   10   11 1
    23   11   12 1
    24   11   40 1
    25   11   41 1
    26   12   13 1
    27   12   42 1
    28   12   43 1
    29   13   14 1
    30   13   44 1
    31   13   45 1
    32   14   15 1
    33   14   46 1
    34   15   16 1
    35   15   25 1
    36   15   47 1
    37   16   20 1
    38   16   17 2
    39   17   18 1
    40   17   48 1
    41   18   19 1
    42   19   24 ar
    43   19   20 ar
    44   20   21 ar
    45   21   22 ar
    46   21   49 1
    47   22   23 ar
    48   22   50 1
    49   23   24 ar
    50   23   51 1
    51   24   52 1
    52   25   53 1
    53   26   31 ar
    54   26   27 ar
    55   27   28 ar
    56   27   54 1
    57   28   29 ar
    58   28   55 1
    59   29   30 ar
    60   29   32 1
    61   30   31 ar
    62   30   56 1
    63   31   57 1
@<TRIPOS>MOLECULE
CHEMBL569543__15
   57    62     0     0     0
SMALL
USER_CHARGES

@<TRIPOS>ATOM
      1 C1          0.2274    1.2518   -0.3206 C.3       1 <0>        -0.1515
      2 C2          0.0328   -0.2548   -0.1378 C.3       1 <0>        -0.0164
      3 C3          0.2783   -0.9354   -1.4933 C.3       1 <0>         0.1098
      4 N1          1.3672   -1.9180   -1.5691 N.pl3     1 <0>        -0.4513
      5 C4          1.8574   -2.6511   -2.5910 C.2       1 <0>         0.2006
      6 N2          2.8498   -3.3821   -2.1640 N.2       1 <0>        -0.4717
      7 C5          3.0425   -3.1587   -0.8510 C.2       1 <0>         0.0567
      8 C6          2.0979   -2.2258   -0.4473 C.2       1 <0>         0.0239
      9 C7          1.8208   -1.6205    0.8560 C.2       1 <0>        -0.0893
     10 C8          0.8866   -0.7009    1.0297 C.2       1 <0>        -0.0956
     11 C9          0.6116   -0.1152    2.3930 C.3       1 <0>        -0.0770
     12 C10        -0.8767   -0.3091    2.7087 C.3       1 <0>        -0.1135
     13 C11        -1.7181    0.2613    1.5659 C.3       1 <0>        -0.1272
     14 C12        -1.4217   -0.4937    0.2686 C.3       1 <0>        -0.1022
     15 C13        -2.3501    0.0100   -0.8383 C.3       1 <0>         0.1612
     16 C14        -3.7720   -0.3678   -0.5120 C.2       1 <0>        -0.1337
     17 C15        -4.5785    0.5040    0.1104 C.2       1 <0>        -0.1475
     18 S1         -6.1141   -0.3876    0.2673 S.3       1 <0>         0.0401
     19 C16        -5.6301   -1.9082   -0.5080 C.ar      1 <0>        -0.1122
     20 C17        -4.2856   -1.6805   -0.8745 C.ar      1 <0>        -0.0824
     21 C18        -3.6197   -2.7415   -1.5320 C.ar      1 <0>        -0.0788
     22 C19        -4.2631   -3.9108   -1.7923 C.ar      1 <0>        -0.1174
     23 C20        -5.5875   -4.1077   -1.4256 C.ar      1 <0>        -0.0923
     24 C21        -6.2698   -3.0997   -0.7731 C.ar      1 <0>        -0.0758
     25 O1         -2.2458    1.4317   -0.9373 O.3       1 <0>        -0.5431
     26 C22         4.0717   -3.7921    0.0051 C.ar      1 <0>        -0.0081
     27 C23         4.6650   -3.0672    1.0388 C.ar      1 <0>        -0.0819
     28 C24         5.6232   -3.6617    1.8333 C.ar      1 <0>        -0.1513
     29 C25         5.9970   -4.9764    1.6057 C.ar      1 <0>         0.0972
     30 C26         5.4110   -5.7005    0.5799 C.ar      1 <0>        -0.1517
     31 C27         4.4470   -5.1172   -0.2160 C.ar      1 <0>        -0.0648
     32 F1          6.9363   -5.5540    2.3863 F         1 <0>        -0.1396
     33 H1          1.2918    1.4741   -0.3960 H         1 <0>         0.0516
     34 H2         -0.2768    1.5754   -1.2312 H         1 <0>         0.0887
     35 H3         -0.1942    1.7790    0.5351 H         1 <0>         0.0697
     36 H4         -0.6443   -1.4354   -1.7882 H         1 <0>         0.0828
     37 H5          0.4802   -0.1553   -2.2274 H         1 <0>         0.0928
     38 H6          1.4853   -2.6354   -3.6047 H         1 <0>         0.2091
     39 H7          2.4159   -1.9224    1.7052 H         1 <0>         0.1318
     40 H8          1.2158   -0.6276    3.1417 H         1 <0>         0.0771
     41 H9          0.8514    0.9481    2.3914 H         1 <0>         0.0805
     42 H10        -1.0890   -1.3723    2.8206 H         1 <0>         0.0655
     43 H11        -1.1224    0.2101    3.6350 H         1 <0>         0.0723
     44 H12        -2.7756    0.1597    1.8099 H         1 <0>         0.0729
     45 H13        -1.4794    1.3165    1.4328 H         1 <0>         0.0753
     46 H14        -1.5855   -1.5602    0.4233 H         1 <0>         0.0850
     47 H15        -2.0627   -0.4424   -1.7874 H         1 <0>         0.1085
     48 H16        -4.3516    1.5074    0.4390 H         1 <0>         0.1879
     49 H17        -2.5888   -2.6213   -1.8309 H         1 <0>         0.1182
     50 H18        -3.7317   -4.7046   -2.2962 H         1 <0>         0.1288
     51 H19        -6.0785   -5.0447   -1.6429 H         1 <0>         0.1366
     52 H20        -7.3006   -3.2400   -0.4831 H         1 <0>         0.1333
     53 H21        -2.4869    1.9012   -0.1271 H         1 <0>         0.3729
     54 H22         4.3748   -2.0422    1.2165 H         1 <0>         0.1332
     55 H23         6.0831   -3.1013    2.6339 H         1 <0>         0.1377
     56 H24         5.7063   -6.7248    0.4060 H         1 <0>         0.1378
     57 H25         3.9874   -5.6840   -1.0122 H         1 <0>         0.1371
@<TRIPOS>BOND
     1    1    2 1
     2    1   33 1
     3    1   34 1
     4    1   35 1
     5    2   10 1
     6    2   14 1
     7    2    3 1
     8    3    4 1
     9    3   36 1
    10    3   37 1
    11    4    8 1
    12    4    5 1
    13    5    6 2
    14    5   38 1
    15    6    7 1
    16    7    8 2
    17    7   26 1
    18    8    9 1
    19    9   10 2
    20    9   39 1
    21   10   11 1
    22   11   12 1
    23   11   40 1
    24   11   41 1
    25   12   13 1
    26   12   42 1
    27   12   43 1
    28   13   14 1
    29   13   44 1
    30   13   45 1
    31   14   15 1
    32   14   46 1
    33   15   16 1
    34   15   25 1
    35   15   47 1
    36   16   20 1
    37   16   17 2
    38   17   18 1
    39   17   48 1
    40   18   19 1
    41   19   24 ar
    42   19   20 ar
    43   20   21 ar
    44   21   22 ar
    45   21   49 1
    46   22   23 ar
    47   22   50 1
    48   23   24 ar
    49   23   51 1
    50   24   52 1
    51   25   53 1
    52   26   31 ar
    53   26   27 ar
    54   27   28 ar
    55   27   54 1
    56   28   29 ar
    57   28   55 1
    58   29   30 ar
    59   29   32 1
    60   30   31 ar
    61   30   56 1
    62   31   57 1
@<TRIPOS>MOLECULE
CHEMBL392091
   68    72     0     0     0
SMALL
USER_CHARGES

@<TRIPOS>ATOM
      1 C1         -0.0795    1.5118    0.3017 C.3       1 <0>        -0.0780
      2 C2         -0.0520    0.0164    0.1171 C.2       1 <0>         0.0012
      3 C3         -1.1141   -0.7931    0.2367 C.2       1 <0>        -0.1871
      4 C4         -0.6275   -2.1549   -0.0255 C.2       1 <0>        -0.2258
      5 C5          0.7437   -2.0117   -0.2877 C.2       1 <0>         0.1104
      6 O1          1.0402   -0.7021   -0.1974 O.3       1 <0>        -0.1544
      7 C6          1.6421   -3.0464   -0.5946 C.2       1 <0>        -0.1222
      8 C7          2.9634   -2.7606   -0.8296 C.2       1 <0>         0.1380
      9 C8          3.9112   -3.7129   -1.1775 C.2       1 <0>        -0.1152
     10 C9          4.8691   -3.3139   -2.1270 C.2       1 <0>        -0.0027
     11 C10         5.8036   -4.3127   -2.6578 C.2       1 <0>        -0.1211
     12 C11         5.4674   -5.6126   -2.6264 C.2       1 <0>        -0.1147
     13 C12         4.1526   -5.9746   -1.9821 C.3       1 <0>         0.1177
     14 C13         4.0509   -5.1234   -0.7063 C.3       1 <0>         0.0151
     15 C14         3.0404   -5.6483    0.2406 C.2       1 <0>        -0.1052
     16 C15         2.4149   -6.7792    0.0412 C.2       1 <0>        -0.1374
     17 C16         2.7095   -7.6964   -1.1070 C.3       1 <0>         0.1459
     18 N1          4.0262   -7.3879   -1.6817 N.3       1 <0>        -0.6689
     19 C17         1.6212   -7.5625   -2.1687 C.3       1 <0>        -0.1757
     20 C18         2.7234   -9.1399   -0.5915 C.3       1 <0>        -0.1334
     21 C19         2.7765   -4.9385    1.5506 C.3       1 <0>        -0.1221
     22 C20         4.8965   -1.8970   -2.5145 C.ar      1 <0>        -0.1242
     23 C21         4.1227   -0.9881   -1.7649 C.ar      1 <0>         0.1296
     24 C22         4.1402    0.3595   -2.0750 C.ar      1 <0>        -0.1233
     25 C23         4.9072    0.8196   -3.1290 C.ar      1 <0>        -0.0894
     26 C24         5.6595   -0.0656   -3.8849 C.ar      1 <0>         0.0655
     27 C25         5.6563   -1.4245   -3.5857 C.ar      1 <0>         0.1258
     28 O2          6.3856   -2.2712   -4.3589 O.3       1 <0>        -0.3249
     29 C26         5.7353   -2.8275   -5.5033 C.3       1 <0>         0.0396
     30 O3          6.4065    0.3940   -4.9259 O.3       1 <0>        -0.4866
     31 O4          3.3466   -1.4515   -0.7511 O.3       1 <0>        -0.2240
     32 C27        -1.4051   -3.3933   -0.0148 C.2       1 <0>         0.5908
     33 O5         -1.3597   -4.1490   -0.9688 O.2       1 <0>        -0.5329
     34 N2         -2.1719   -3.6984    1.0508 N.am      1 <0>        -0.6132
     35 C28        -2.8772   -4.9814    1.1023 C.3       1 <0>         0.0845
     36 C29        -2.3000   -2.7470    2.1574 C.3       1 <0>         0.0654
     37 H1          0.9200    1.9162    0.1414 H         1 <0>         0.0782
     38 H2         -0.7699    1.9540   -0.4166 H         1 <0>         0.0878
     39 H3         -0.4084    1.7470    1.3140 H         1 <0>         0.0885
     40 H4         -2.1259   -0.5024    0.4777 H         1 <0>         0.1586
     41 H5          1.2931   -4.0672   -0.6456 H         1 <0>         0.1716
     42 H6          6.7645   -4.0209   -3.0532 H         1 <0>         0.1423
     43 H7          6.1057   -6.3701   -3.0415 H         1 <0>         0.1361
     44 H8          3.3617   -5.6593   -2.6643 H         1 <0>         0.0516
     45 H9          5.0365   -5.1949   -0.2076 H         1 <0>         0.0986
     46 H10         1.6473   -7.0656    0.7409 H         1 <0>         0.1152
     47 H11         4.2161   -7.9646   -2.4871 H         1 <0>         0.3520
     48 H12         1.5890   -6.5340   -2.5282 H         1 <0>         0.0562
     49 H13         1.8410   -8.2315   -3.0007 H         1 <0>         0.0586
     50 H14         0.6565   -7.8263   -1.7354 H         1 <0>         0.0680
     51 H15         1.7504   -9.3824   -0.1641 H         1 <0>         0.0621
     52 H16         2.9368   -9.8185   -1.4174 H         1 <0>         0.0576
     53 H17         3.4927   -9.2452    0.1734 H         1 <0>         0.0654
     54 H18         1.9901   -4.1969    1.4101 H         1 <0>         0.0679
     55 H19         2.4616   -5.6644    2.3003 H         1 <0>         0.0660
     56 H20         3.6878   -4.4427    1.8852 H         1 <0>         0.0640
     57 H21         3.5550    1.0575   -1.4940 H         1 <0>         0.1466
     58 H22         4.9190    1.8731   -3.3639 H         1 <0>         0.1480
     59 H23         4.8641   -3.3995   -5.1839 H         1 <0>         0.0459
     60 H24         5.4184   -2.0236   -6.1677 H         1 <0>         0.0530
     61 H25         6.4272   -3.4838   -6.0312 H         1 <0>         0.0987
     62 H26         7.3081    0.6449   -4.6825 H         1 <0>         0.3936
     63 H27        -2.2400   -5.7275    1.5771 H         1 <0>         0.0561
     64 H28        -3.7955   -4.8683    1.6785 H         1 <0>         0.0710
     65 H29        -3.1209   -5.3030    0.0898 H         1 <0>         0.0786
     66 H30        -1.7730   -1.8262    1.9078 H         1 <0>         0.0913
     67 H31        -3.3541   -2.5277    2.3277 H         1 <0>         0.0639
     68 H32        -1.8684   -3.1794    3.0601 H         1 <0>         0.0600
@<TRIPOS>BOND
     1    1    2 1
     2    1   37 1
     3    1   38 1
     4    1   39 1
     5    2    6 1
     6    2    3 2
     7    3    4 1
     8    3   40 1
     9    4    5 2
    10    4   32 1
    11    5    6 1
    12    5    7 1
    13    7    8 2
    14    7   41 1
    15    8   31 1
    16    8    9 1
    17    9   14 1
    18    9   10 2
    19   10   11 1
    20   10   22 1
    21   11   12 2
    22   11   42 1
    23   12   13 1
    24   12   43 1
    25   13   18 1
    26   13   14 1
    27   13   44 1
    28   14   15 1
    29   14   45 1
    30   15   16 2
    31   15   21 1
    32   16   17 1
    33   16   46 1
    34   17   18 1
    35   17   19 1
    36   17   20 1
    37   18   47 1
    38   19   48 1
    39   19   49 1
    40   19   50 1
    41   20   51 1
    42   20   52 1
    43   20   53 1
    44   21   54 1
    45   21   55 1
    46   21   56 1
    47   22   27 ar
    48   22   23 ar
    49   23   24 ar
    50   23   31 1
    51   24   25 ar
    52   24   57 1
    53   25   26 ar
    54   25   58 1
    55   26   27 ar
    56   26   30 1
    57   27   28 1
    58   28   29 1
    59   29   59 1
    60   29   60 1
    61   29   61 1
    62   30   62 1
    63   32   33 2
    64   32   34 am
    65   34   35 1
    66   34   36 1
    67   35   63 1
    68   35   64 1
    69   35   65 1
    70   36   66 1
    71   36   67 1
    72   36   68 1
@<TRIPOS>MOLECULE
CHEMBL392091__1
   69    73     0     0     0
SMALL
USER_CHARGES

@<TRIPOS>ATOM
      1 C1         -0.0795    1.5118    0.3017 C.3       1 <0>        -0.0837
      2 C2         -0.0520    0.0164    0.1171 C.2       1 <0>         0.0206
      3 C3         -1.1141   -0.7931    0.2367 C.2       1 <0>        -0.1915
      4 C4         -0.6275   -2.1549   -0.0255 C.2       1 <0>        -0.2027
      5 C5          0.7437   -2.0117   -0.2877 C.2       1 <0>         0.0820
      6 O1          1.0402   -0.7021   -0.1974 O.3       1 <0>        -0.1520
      7 C6          1.6421   -3.0464   -0.5946 C.2       1 <0>        -0.0911
      8 C7          2.9631   -2.7606   -0.8296 C.2       1 <0>         0.1098
      9 C8          3.9119   -3.7118   -1.1794 C.2       1 <0>        -0.1083
     10 C9          4.8606   -3.3097   -2.1367 C.2       1 <0>        -0.0056
     11 C10         5.8006   -4.3022   -2.6692 C.2       1 <0>        -0.0397
     12 C11         5.4765   -5.6039   -2.6296 C.2       1 <0>        -0.2021
     13 C12         4.1683   -5.9766   -1.9760 C.3       1 <0>         0.0487
     14 C13         4.0615   -5.1198   -0.7045 C.3       1 <0>        -0.0036
     15 C14         3.0483   -5.6483    0.2394 C.2       1 <0>        -0.0823
     16 C15         2.4339   -6.7847    0.0348 C.2       1 <0>        -0.1795
     17 C16         2.7468   -7.6993   -1.1101 C.3       1 <0>         0.0999
     18 N1          4.0702   -7.3919   -1.6685 N.4       1 <0>        -0.4862
     19 C17         1.6706   -7.5733   -2.1844 C.3       1 <0>        -0.1717
     20 C18         2.7593   -9.1429   -0.5927 C.3       1 <0>        -0.1721
     21 C19         2.7711   -4.9394    1.5472 C.3       1 <0>        -0.1321
     22 C20         4.8752   -1.8945   -2.5315 C.ar      1 <0>        -0.1396
     23 C21         4.1091   -0.9855   -1.7742 C.ar      1 <0>         0.1360
     24 C22         4.1189    0.3610   -2.0888 C.ar      1 <0>        -0.1206
     25 C23         4.8677    0.8188   -3.1569 C.ar      1 <0>        -0.0766
     26 C24         5.6107   -0.0670   -3.9216 C.ar      1 <0>         0.0718
     27 C25         5.6151   -1.4248   -3.6174 C.ar      1 <0>         0.1285
     28 O2          6.3316   -2.2737   -4.4002 O.3       1 <0>        -0.3278
     29 C26         5.6618   -2.8350   -5.5309 C.3       1 <0>         0.0368
     30 O3          6.3400    0.3905   -4.9759 O.3       1 <0>        -0.4845
     31 O4          3.3464   -1.4509   -0.7510 O.3       1 <0>        -0.2174
     32 C27        -1.4051   -3.3933   -0.0148 C.2       1 <0>         0.5891
     33 O5         -1.3597   -4.1490   -0.9688 O.2       1 <0>        -0.5384
     34 N2         -2.1719   -3.6984    1.0508 N.am      1 <0>        -0.6092
     35 C28        -2.8772   -4.9814    1.1023 C.3       1 <0>         0.0829
     36 C29        -2.3000   -2.7470    2.1574 C.3       1 <0>         0.0615
     37 H1          0.9200    1.9162    0.1414 H         1 <0>         0.0808
     38 H2         -0.7699    1.9540   -0.4166 H         1 <0>         0.0930
     39 H3         -0.4084    1.7470    1.3140 H         1 <0>         0.0937
     40 H4         -2.1259   -0.5024    0.4777 H         1 <0>         0.1636
     41 H5          1.2931   -4.0672   -0.6456 H         1 <0>         0.1686
     42 H6          6.7562   -4.0025   -3.0721 H         1 <0>         0.1622
     43 H7          6.1185   -6.3577   -3.0455 H         1 <0>         0.1573
     44 H8          3.3721   -5.6762   -2.6568 H         1 <0>         0.1486
     45 H9          5.0455   -5.1845   -0.2024 H         1 <0>         0.1219
     46 H10         1.6620   -7.0774    0.7277 H         1 <0>         0.1548
     47 H11         4.2148   -7.9400   -2.5079 H         1 <0>         0.4331
     48 H12         1.6355   -6.5452   -2.5448 H         1 <0>         0.0801
     49 H13         1.9048   -8.2411   -3.0135 H         1 <0>         0.0855
     50 H14         0.7026   -7.8437   -1.7625 H         1 <0>         0.1113
     51 H15         1.7819   -9.3885   -0.1776 H         1 <0>         0.1096
     52 H16         2.9858   -9.8216   -1.4150 H         1 <0>         0.0858
     53 H17         3.5192   -9.2445    0.1821 H         1 <0>         0.0839
     54 H18         1.9806   -4.2033    1.4010 H         1 <0>         0.0844
     55 H19         2.4562   -5.6670    2.2953 H         1 <0>         0.0814
     56 H20         3.6767   -4.4372    1.8874 H         1 <0>         0.0783
     57 H21         3.5427    1.0601   -1.5003 H         1 <0>         0.1514
     58 H22         4.8731    1.8712   -3.3958 H         1 <0>         0.1540
     59 H23         5.3324   -2.0339   -6.1926 H         1 <0>         0.0592
     60 H24         6.3450   -3.4925   -6.0684 H         1 <0>         0.1021
     61 H25         4.7970   -3.4066   -5.1940 H         1 <0>         0.0426
     62 H26         7.2446    0.6447   -4.7476 H         1 <0>         0.3989
     63 H27        -2.2400   -5.7275    1.5771 H         1 <0>         0.0561
     64 H28        -3.7955   -4.8683    1.6785 H         1 <0>         0.0753
     65 H29        -3.1209   -5.3030    0.0898 H         1 <0>         0.0797
     66 H30        -1.7730   -1.8262    1.9078 H         1 <0>         0.0914
     67 H31        -3.3541   -2.5277    2.3277 H         1 <0>         0.0692
     68 H32        -1.8684   -3.1794    3.0601 H         1 <0>         0.0631
     69 H33         4.7827   -7.6478   -0.9941 H         1 <0>         0.4294
@<TRIPOS>BOND
     1    1    2 1
     2    1   37 1
     3    1   38 1
     4    1   39 1
     5    2    6 1
     6    2    3 2
     7    3    4 1
     8    3   40 1
     9    4    5 2
    10    4   32 1
    11    5    6 1
    12    5    7 1
    13    7    8 2
    14    7   41 1
    15    8   31 1
    16    8    9 1
    17    9   14 1
    18    9   10 2
    19   10   11 1
    20   10   22 1
    21   11   12 2
    22   11   42 1
    23   12   13 1
    24   12   43 1
    25   13   18 1
    26   13   14 1
    27   13   44 1
    28   14   15 1
    29   14   45 1
    30   15   16 2
    31   15   21 1
    32   16   17 1
    33   16   46 1
    34   17   18 1
    35   17   19 1
    36   17   20 1
    37   18   47 1
    38   18   69 1
    39   19   48 1
    40   19   49 1
    41   19   50 1
    42   20   51 1
    43   20   52 1
    44   20   53 1
    45   21   54 1
    46   21   55 1
    47   21   56 1
    48   22   27 ar
    49   22   23 ar
    50   23   24 ar
    51   23   31 1
    52   24   25 ar
    53   24   57 1
    54   25   26 ar
    55   25   58 1
    56   26   27 ar
    57   26   30 1
    58   27   28 1
    59   28   29 1
    60   29   59 1
    61   29   60 1
    62   29   61 1
    63   30   62 1
    64   32   33 2
    65   32   34 am
    66   34   35 1
    67   34   36 1
    68   35   63 1
    69   35   64 1
    70   35   65 1
    71   36   66 1
    72   36   67 1
    73   36   68 1
@<TRIPOS>MOLECULE
CHEMBL392091__2
   68    72     0     0     0
SMALL
USER_CHARGES

@<TRIPOS>ATOM
      1 C1         -0.1650    1.0671    2.6362 C.3       1 <0>        -0.0757
      2 C2         -0.1320   -0.3266    2.0639 C.2       1 <0>        -0.0105
      3 C3         -1.1819   -1.1585    2.0036 C.2       1 <0>        -0.1816
      4 C4         -0.6944   -2.3945    1.3755 C.2       1 <0>        -0.2473
      5 C5          0.6644   -2.1624    1.1121 C.2       1 <0>         0.1310
      6 O1          0.9531   -0.9173    1.5333 O.3       1 <0>        -0.1615
      7 C6          1.5589   -3.0637    0.5124 C.2       1 <0>        -0.1818
      8 C7          2.8773   -2.6993    0.3131 C.2       1 <0>         0.1610
      9 C8          3.7510   -3.6164   -0.2939 C.2       1 <0>        -0.1288
     10 C9          5.0735   -3.2651   -0.4792 C.2       1 <0>         0.0285
     11 C10         5.9905   -4.1958   -1.1452 C.2       1 <0>        -0.1608
     12 C11         5.5025   -5.2266   -1.8274 C.2       1 <0>        -0.0982
     13 C12         4.0228   -5.4439   -1.9630 C.3       1 <0>         0.1153
     14 C13         3.2732   -4.9757   -0.7227 C.3       1 <0>        -0.0291
     15 C14         3.4470   -5.9577    0.3997 C.2       1 <0>        -0.1081
     16 C15         3.9183   -7.1552    0.2267 C.2       1 <0>        -0.1763
     17 C16         4.3434   -7.6813   -1.1141 C.3       1 <0>         0.1383
     18 N1          3.7510   -6.8716   -2.1863 N.3       1 <0>        -0.6586
     19 C17         5.8686   -7.6252   -1.2206 C.3       1 <0>        -0.1479
     20 C18         3.8807   -9.1325   -1.2595 C.3       1 <0>        -0.1393
     21 C19         3.0567   -5.5335    1.7921 C.3       1 <0>        -0.1227
     22 C20         5.5187   -1.9472    0.0022 C.ar      1 <0>        -0.1326
     23 C21         4.5726   -1.0927    0.5919 C.ar      1 <0>         0.1361
     24 C22         4.9753    0.1522    1.0524 C.ar      1 <0>        -0.1225
     25 C23         6.2937    0.5475    0.9294 C.ar      1 <0>        -0.0849
     26 C24         7.2319   -0.2911    0.3455 C.ar      1 <0>         0.0691
     27 C25         6.8499   -1.5422   -0.1223 C.ar      1 <0>         0.1281
     28 O2          7.7649   -2.3663   -0.6971 O.3       1 <0>        -0.3230
     29 C26         7.9413   -2.2542   -2.1108 C.3       1 <0>         0.0313
     30 O3          8.5264    0.1120    0.2305 O.3       1 <0>        -0.4852
     31 O4          3.2804   -1.4748    0.7023 O.3       1 <0>        -0.2052
     32 C27        -1.4605   -3.6063    1.0874 C.2       1 <0>         0.5935
     33 O5         -1.4138   -4.1069   -0.0219 O.2       1 <0>        -0.5380
     34 N2         -2.2183   -4.1692    2.0493 N.am      1 <0>        -0.6151
     35 C28        -2.9082   -5.4355    1.7912 C.3       1 <0>         0.0846
     36 C29        -2.3521   -3.5147    3.3532 C.3       1 <0>         0.0674
     37 H1          0.8241    1.5176    2.5528 H         1 <0>         0.0764
     38 H2         -0.8864    1.6696    2.0843 H         1 <0>         0.0861
     39 H3         -0.4564    1.0222    3.6856 H         1 <0>         0.0862
     40 H4         -2.1860   -0.9598    2.3480 H         1 <0>         0.1557
     41 H5          1.2168   -4.0414    0.2070 H         1 <0>         0.1741
     42 H6          7.0579   -4.0439   -1.0818 H         1 <0>         0.1561
     43 H7          6.1842   -5.9222   -2.2942 H         1 <0>         0.1457
     44 H8          3.6589   -4.8766   -2.8197 H         1 <0>         0.1024
     45 H9          2.2105   -4.9158   -0.9572 H         1 <0>         0.1005
     46 H10         4.0083   -7.8027    1.0864 H         1 <0>         0.1125
     47 H11         2.7596   -7.0433   -2.2634 H         1 <0>         0.3497
     48 H12         6.3003   -8.4868   -0.7113 H         1 <0>         0.0594
     49 H13         6.1603   -7.6401   -2.2708 H         1 <0>         0.0723
     50 H14         6.2318   -6.7087   -0.7556 H         1 <0>         0.0699
     51 H15         2.7947   -9.1775   -1.1780 H         1 <0>         0.0559
     52 H16         4.1884   -9.5162   -2.2322 H         1 <0>         0.0679
     53 H17         4.3295   -9.7375   -0.4717 H         1 <0>         0.0638
     54 H18         2.0102   -5.7825    1.9679 H         1 <0>         0.0677
     55 H19         3.6810   -6.0535    2.5188 H         1 <0>         0.0630
     56 H20         3.1967   -4.4576    1.8968 H         1 <0>         0.0639
     57 H21         4.2554    0.8155    1.5087 H         1 <0>         0.1493
     58 H22         6.5966    1.5190    1.2911 H         1 <0>         0.1507
     59 H23         6.9979   -2.4686   -2.6128 H         1 <0>         0.0531
     60 H24         8.2626   -1.2423   -2.3577 H         1 <0>         0.0555
     61 H25         8.6981   -2.9662   -2.4400 H         1 <0>         0.1014
     62 H26         9.0798   -0.1216    0.9882 H         1 <0>         0.3947
     63 H27        -2.2599   -6.2660    2.0705 H         1 <0>         0.0549
     64 H28        -3.8249   -5.4763    2.3796 H         1 <0>         0.0703
     65 H29        -3.1533   -5.5063    0.7314 H         1 <0>         0.0787
     66 H30        -1.6973   -2.6441    3.3916 H         1 <0>         0.0912
     67 H31        -3.3854   -3.1988    3.4969 H         1 <0>         0.0601
     68 H32        -2.0730   -4.2142    4.1412 H         1 <0>         0.0615
@<TRIPOS>BOND
     1    1    2 1
     2    1   37 1
     3    1   38 1
     4    1   39 1
     5    2    6 1
     6    2    3 2
     7    3    4 1
     8    3   40 1
     9    4    5 2
    10    4   32 1
    11    5    6 1
    12    5    7 1
    13    7    8 2
    14    7   41 1
    15    8   31 1
    16    8    9 1
    17    9   14 1
    18    9   10 2
    19   10   11 1
    20   10   22 1
    21   11   12 2
    22   11   42 1
    23   12   13 1
    24   12   43 1
    25   13   18 1
    26   13   14 1
    27   13   44 1
    28   14   15 1
    29   14   45 1
    30   15   16 2
    31   15   21 1
    32   16   17 1
    33   16   46 1
    34   17   18 1
    35   17   19 1
    36   17   20 1
    37   18   47 1
    38   19   48 1
    39   19   49 1
    40   19   50 1
    41   20   51 1
    42   20   52 1
    43   20   53 1
    44   21   54 1
    45   21   55 1
    46   21   56 1
    47   22   27 ar
    48   22   23 ar
    49   23   24 ar
    50   23   31 1
    51   24   25 ar
    52   24   57 1
    53   25   26 ar
    54   25   58 1
    55   26   27 ar
    56   26   30 1
    57   27   28 1
    58   28   29 1
    59   29   59 1
    60   29   60 1
    61   29   61 1
    62   30   62 1
    63   32   33 2
    64   32   34 am
    65   34   35 1
    66   34   36 1
    67   35   63 1
    68   35   64 1
    69   35   65 1
    70   36   66 1
    71   36   67 1
    72   36   68 1
@<TRIPOS>MOLECULE
CHEMBL392091__3
   69    73     0     0     0
SMALL
USER_CHARGES

@<TRIPOS>ATOM
      1 C1         -0.1604    1.1777    2.3723 C.3       1 <0>        -0.0814
      2 C2         -0.1293   -0.2365    1.8526 C.2       1 <0>         0.0094
      3 C3         -1.1836   -1.0639    1.8100 C.2       1 <0>        -0.1863
      4 C4         -0.6962   -2.3253    1.2344 C.2       1 <0>        -0.2225
      5 C5          0.6671   -2.1110    0.9795 C.2       1 <0>         0.1026
      6 O1          0.9585   -0.8528    1.3578 O.3       1 <0>        -0.1583
      7 C6          1.5633   -3.0392    0.4250 C.2       1 <0>        -0.1498
      8 C7          2.8863   -2.6902    0.2287 C.2       1 <0>         0.1362
      9 C8          3.7615   -3.6340   -0.3328 C.2       1 <0>        -0.1145
     10 C9          5.0880   -3.2971   -0.5170 C.2       1 <0>         0.0152
     11 C10         6.0072   -4.2574   -1.1361 C.2       1 <0>        -0.0723
     12 C11         5.5208   -5.3108   -1.7845 C.2       1 <0>        -0.2039
     13 C12         4.0414   -5.5243   -1.9286 C.3       1 <0>         0.0759
     14 C13         3.2812   -5.0068   -0.7145 C.3       1 <0>        -0.0223
     15 C14         3.4466   -5.9464    0.4459 C.2       1 <0>        -0.0799
     16 C15         3.9276   -7.1462    0.3153 C.2       1 <0>        -0.1798
     17 C16         4.3694   -7.7088   -1.0049 C.3       1 <0>         0.1020
     18 N1          3.7613   -6.9557   -2.1077 N.4       1 <0>        -0.4970
     19 C17         5.8932   -7.6189   -1.1095 C.3       1 <0>        -0.1835
     20 C18         3.9443   -9.1756   -1.0982 C.3       1 <0>        -0.1726
     21 C19         3.0370   -5.4780    1.8185 C.3       1 <0>        -0.1340
     22 C20         5.5352   -1.9640   -0.0817 C.ar      1 <0>        -0.1438
     23 C21         4.5876   -1.0830    0.4656 C.ar      1 <0>         0.1428
     24 C22         4.9922    0.1764    0.8828 C.ar      1 <0>        -0.1190
     25 C23         6.3138    0.5606    0.7581 C.ar      1 <0>        -0.0736
     26 C24         7.2531   -0.3039    0.2155 C.ar      1 <0>         0.0770
     27 C25         6.8695   -1.5703   -0.2078 C.ar      1 <0>         0.1268
     28 O2          7.7861   -2.4203   -0.7408 O.3       1 <0>        -0.3254
     29 C26         7.9776   -2.3637   -2.1558 C.3       1 <0>         0.0270
     30 O3          8.5506    0.0887    0.0974 O.3       1 <0>        -0.4833
     31 O4          3.2925   -1.4543    0.5772 O.3       1 <0>        -0.1992
     32 C27        -1.4663   -3.5424    0.9819 C.2       1 <0>         0.5923
     33 O5         -1.4187   -4.0774   -0.1112 O.2       1 <0>        -0.5444
     34 N2         -2.2289   -4.0722    1.9587 N.am      1 <0>        -0.6106
     35 C28        -2.9215   -5.3443    1.7388 C.3       1 <0>         0.0829
     36 C29        -2.3653   -3.3759    3.2405 C.3       1 <0>         0.0638
     37 H1          0.8324    1.6189    2.2846 H         1 <0>         0.0792
     38 H2         -0.8712    1.7634    1.7894 H         1 <0>         0.0911
     39 H3         -0.4650    1.1735    3.4189 H         1 <0>         0.0914
     40 H4         -2.1906   -0.8466    2.1343 H         1 <0>         0.1607
     41 H5          1.2188   -4.0256    0.1518 H         1 <0>         0.1712
     42 H6          7.0747   -4.1096   -1.0652 H         1 <0>         0.1750
     43 H7          6.2034   -6.0275   -2.2168 H         1 <0>         0.1654
     44 H8          3.6909   -4.9838   -2.8079 H         1 <0>         0.1542
     45 H9          2.2206   -4.9527   -0.9602 H         1 <0>         0.1297
     46 H10         4.0138   -7.7662    1.1954 H         1 <0>         0.1538
     47 H11         2.7636   -7.1064   -2.1085 H         1 <0>         0.4327
     48 H12         6.3434   -8.4691   -0.5972 H         1 <0>         0.1028
     49 H13         6.1866   -7.6303   -2.1592 H         1 <0>         0.0840
     50 H14         6.2351   -6.6931   -0.6467 H         1 <0>         0.1030
     51 H15         2.8596   -9.2454   -1.0169 H         1 <0>         0.0835
     52 H16         4.2640   -9.5863   -2.0560 H         1 <0>         0.0849
     53 H17         4.4065   -9.7401   -0.2884 H         1 <0>         0.1082
     54 H18         1.9902   -5.7282    1.9904 H         1 <0>         0.0848
     55 H19         3.6560   -5.9687    2.5695 H         1 <0>         0.0796
     56 H20         3.1687   -4.3982    1.8882 H         1 <0>         0.0767
     57 H21         4.2713    0.8598    1.3066 H         1 <0>         0.1544
     58 H22         6.6181    1.5436    1.0859 H         1 <0>         0.1568
     59 H23         8.3065   -1.3636   -2.4382 H         1 <0>         0.0627
     60 H24         8.7340   -3.0914   -2.4495 H         1 <0>         0.1048
     61 H25         7.0382   -2.5928   -2.6590 H         1 <0>         0.0485
     62 H26         9.0959   -0.1183    0.8687 H         1 <0>         0.3998
     63 H27        -2.2764   -6.1671    2.0468 H         1 <0>         0.0557
     64 H28        -3.8402   -5.3638    2.3250 H         1 <0>         0.0746
     65 H29        -3.1631   -5.4483    0.6811 H         1 <0>         0.0793
     66 H30        -1.7109   -2.5042    3.2519 H         1 <0>         0.0909
     67 H31        -3.3989   -3.0561    3.3720 H         1 <0>         0.0652
     68 H32        -2.0874   -4.0495    4.0512 H         1 <0>         0.0652
     69 H33         4.1508   -7.2682   -2.9845 H         1 <0>         0.4337
@<TRIPOS>BOND
     1    1    2 1
     2    1   37 1
     3    1   38 1
     4    1   39 1
     5    2    6 1
     6    2    3 2
     7    3    4 1
     8    3   40 1
     9    4    5 2
    10    4   32 1
    11    5    6 1
    12    5    7 1
    13    7    8 2
    14    7   41 1
    15    8   31 1
    16    8    9 1
    17    9   14 1
    18    9   10 2
    19   10   11 1
    20   10   22 1
    21   11   12 2
    22   11   42 1
    23   12   13 1
    24   12   43 1
    25   13   18 1
    26   13   14 1
    27   13   44 1
    28   14   15 1
    29   14   45 1
    30   15   16 2
    31   15   21 1
    32   16   17 1
    33   16   46 1
    34   17   18 1
    35   17   19 1
    36   17   20 1
    37   18   47 1
    38   18   69 1
    39   19   48 1
    40   19   49 1
    41   19   50 1
    42   20   51 1
    43   20   52 1
    44   20   53 1
    45   21   54 1
    46   21   55 1
    47   21   56 1
    48   22   27 ar
    49   22   23 ar
    50   23   24 ar
    51   23   31 1
    52   24   25 ar
    53   24   57 1
    54   25   26 ar
    55   25   58 1
    56   26   27 ar
    57   26   30 1
    58   27   28 1
    59   28   29 1
    60   29   59 1
    61   29   60 1
    62   29   61 1
    63   30   62 1
    64   32   33 2
    65   32   34 am
    66   34   35 1
    67   34   36 1
    68   35   63 1
    69   35   64 1
    70   35   65 1
    71   36   66 1
    72   36   67 1
    73   36   68 1
@<TRIPOS>MOLECULE
CHEMBL392091__4
   68    72     0     0     0
SMALL
USER_CHARGES

@<TRIPOS>ATOM
      1 C1          1.6931    0.3068   -1.4276 C.3       1 <0>        -0.0756
      2 C2          1.4376   -1.1598   -1.1938 C.2       1 <0>        -0.0100
      3 C3          0.2254   -1.7190   -1.0679 C.2       1 <0>        -0.1798
      4 C4          0.4529   -3.1553   -0.8546 C.2       1 <0>        -0.2436
      5 C5          1.8470   -3.3143   -0.8760 C.2       1 <0>         0.1270
      6 O1          2.3913   -2.1016   -1.0863 O.3       1 <0>        -0.1614
      7 C6          2.5470   -4.5208   -0.7135 C.2       1 <0>        -0.1788
      8 C7          3.9285   -4.5297   -0.7576 C.2       1 <0>         0.1593
      9 C8          4.6053   -5.7501   -0.5981 C.2       1 <0>        -0.1244
     10 C9          5.9845   -5.7683   -0.6602 C.2       1 <0>         0.0200
     11 C10         6.7087   -7.0276   -0.4585 C.2       1 <0>        -0.1475
     12 C11         6.0800   -8.0715    0.0718 C.2       1 <0>        -0.1478
     13 C12         4.6449   -7.9819    0.5052 C.3       1 <0>         0.1166
     14 C13         3.8513   -7.0328   -0.3832 C.3       1 <0>         0.0126
     15 C14         3.5490   -7.6773   -1.7051 C.2       1 <0>        -0.1004
     16 C15         3.6925   -8.9494   -1.9223 C.2       1 <0>        -0.1431
     17 C16         4.1807   -9.9083   -0.8747 C.3       1 <0>         0.1412
     18 N1          4.0310   -9.3174    0.4618 N.3       1 <0>        -0.6623
     19 C17         5.6562  -10.2257   -1.1258 C.3       1 <0>        -0.1872
     20 C18         3.3665  -11.2014   -0.9518 C.3       1 <0>        -0.1346
     21 C19         3.0565   -6.8070   -2.8326 C.3       1 <0>        -0.1294
     22 C20         6.6872   -4.5026   -0.9264 C.ar      1 <0>        -0.1312
     23 C21         5.9276   -3.3292   -1.0663 C.ar      1 <0>         0.1368
     24 C22         6.5735   -2.1279   -1.3189 C.ar      1 <0>        -0.1218
     25 C23         7.9503   -2.0870   -1.4299 C.ar      1 <0>        -0.0855
     26 C24         8.7056   -3.2421   -1.2906 C.ar      1 <0>         0.0693
     27 C25         8.0791   -4.4556   -1.0361 C.ar      1 <0>         0.1255
     28 O2          8.8150   -5.5894   -0.8961 O.3       1 <0>        -0.3218
     29 C26         9.0750   -6.3446   -2.0811 C.3       1 <0>         0.0275
     30 O3         10.0605   -3.1865   -1.4031 O.3       1 <0>        -0.4858
     31 O4          4.5811   -3.3688   -0.9576 O.3       1 <0>        -0.2045
     32 C27        -0.5568   -4.1952   -0.6611 C.2       1 <0>         0.5927
     33 O5         -0.4738   -4.9556    0.2866 O.2       1 <0>        -0.5349
     34 N2         -1.5791   -4.3123   -1.5316 N.am      1 <0>        -0.6155
     35 C28        -2.6522   -5.2762   -1.2758 C.3       1 <0>         0.0844
     36 C29        -1.6172   -3.4755   -2.7335 C.3       1 <0>         0.0714
     37 H1          2.7668    0.4824   -1.4950 H         1 <0>         0.0763
     38 H2          1.2155    0.6151   -2.3577 H         1 <0>         0.0860
     39 H3          1.2818    0.8839   -0.5994 H         1 <0>         0.0860
     40 H4         -0.7283   -1.2144   -1.1142 H         1 <0>         0.1548
     41 H5          2.0059   -5.4418   -0.5541 H         1 <0>         0.1777
     42 H6          7.7483   -7.1063   -0.7401 H         1 <0>         0.1517
     43 H7          6.6122   -9.0033    0.1939 H         1 <0>         0.1367
     44 H8          4.6071   -7.6085    1.5286 H         1 <0>         0.1009
     45 H9          2.9041   -6.8049    0.1057 H         1 <0>         0.1075
     46 H10         3.4492   -9.3357   -2.9011 H         1 <0>         0.1140
     47 H11         4.4243   -9.9193    1.1697 H         1 <0>         0.3501
     48 H12         6.1742   -9.3199   -1.4410 H         1 <0>         0.0737
     49 H13         6.1082  -10.6021   -0.2082 H         1 <0>         0.0603
     50 H14         5.7375  -10.9812   -1.9073 H         1 <0>         0.0622
     51 H15         3.4865  -11.6480   -1.9388 H         1 <0>         0.0613
     52 H16         3.7194  -11.8988   -0.1921 H         1 <0>         0.0573
     53 H17         2.3136  -10.9786   -0.7794 H         1 <0>         0.0661
     54 H18         3.9075   -6.4370   -3.4043 H         1 <0>         0.0622
     55 H19         2.4067   -7.3906   -3.4848 H         1 <0>         0.0645
     56 H20         2.4990   -5.9641   -2.4241 H         1 <0>         0.0722
     57 H21         5.9979   -1.2208   -1.4295 H         1 <0>         0.1497
     58 H22         8.4430   -1.1465   -1.6276 H         1 <0>         0.1507
     59 H23         8.1309   -6.6611   -2.5246 H         1 <0>         0.0524
     60 H24         9.6218   -5.7265   -2.7931 H         1 <0>         0.0578
     61 H25         9.6704   -7.2221   -1.8294 H         1 <0>         0.1018
     62 H26        10.5182   -3.0224   -0.5672 H         1 <0>         0.3949
     63 H27        -3.4406   -4.7967   -0.6956 H         1 <0>         0.0552
     64 H28        -3.0604   -5.6257   -2.2241 H         1 <0>         0.0701
     65 H29        -2.2541   -6.1234   -0.7173 H         1 <0>         0.0791
     66 H30        -0.7847   -2.7722   -2.7131 H         1 <0>         0.0880
     67 H31        -1.5378   -4.1069   -3.6184 H         1 <0>         0.0593
     68 H32        -2.5574   -2.9249   -2.7632 H         1 <0>         0.0620
@<TRIPOS>BOND
     1    1    2 1
     2    1   37 1
     3    1   38 1
     4    1   39 1
     5    2    6 1
     6    2    3 2
     7    3    4 1
     8    3   40 1
     9    4    5 2
    10    4   32 1
    11    5    6 1
    12    5    7 1
    13    7    8 2
    14    7   41 1
    15    8   31 1
    16    8    9 1
    17    9   14 1
    18    9   10 2
    19   10   11 1
    20   10   22 1
    21   11   12 2
    22   11   42 1
    23   12   13 1
    24   12   43 1
    25   13   18 1
    26   13   14 1
    27   13   44 1
    28   14   15 1
    29   14   45 1
    30   15   16 2
    31   15   21 1
    32   16   17 1
    33   16   46 1
    34   17   18 1
    35   17   19 1
    36   17   20 1
    37   18   47 1
    38   19   48 1
    39   19   49 1
    40   19   50 1
    41   20   51 1
    42   20   52 1
    43   20   53 1
    44   21   54 1
    45   21   55 1
    46   21   56 1
    47   22   27 ar
    48   22   23 ar
    49   23   24 ar
    50   23   31 1
    51   24   25 ar
    52   24   57 1
    53   25   26 ar
    54   25   58 1
    55   26   27 ar
    56   26   30 1
    57   27   28 1
    58   28   29 1
    59   29   59 1
    60   29   60 1
    61   29   61 1
    62   30   62 1
    63   32   33 2
    64   32   34 am
    65   34   35 1
    66   34   36 1
    67   35   63 1
    68   35   64 1
    69   35   65 1
    70   36   66 1
    71   36   67 1
    72   36   68 1
@<TRIPOS>MOLECULE
CHEMBL392091__5
   69    73     0     0     0
SMALL
USER_CHARGES

@<TRIPOS>ATOM
      1 C1          1.5623    0.3166   -1.2516 C.3       1 <0>        -0.0812
      2 C2          1.3349   -1.1614   -1.0650 C.2       1 <0>         0.0092
      3 C3          0.1359   -1.7424   -0.9151 C.2       1 <0>        -0.1843
      4 C4          0.3900   -3.1823   -0.7661 C.2       1 <0>        -0.2224
      5 C5          1.7842   -3.3203   -0.8464 C.2       1 <0>         0.1012
      6 O1          2.3042   -2.0927   -1.0301 O.3       1 <0>        -0.1585
      7 C6          2.5055   -4.5219   -0.7572 C.2       1 <0>        -0.1543
      8 C7          3.8843   -4.5092   -0.8538 C.2       1 <0>         0.1399
      9 C8          4.5824   -5.7246   -0.7672 C.2       1 <0>        -0.1149
     10 C9          5.9588   -5.7206   -0.8792 C.2       1 <0>         0.0149
     11 C10         6.7062   -6.9760   -0.7540 C.2       1 <0>        -0.0745
     12 C11         6.1111   -8.0488   -0.2425 C.2       1 <0>        -0.2008
     13 C12         4.6917   -7.9964    0.2450 C.3       1 <0>         0.0755
     14 C13         3.8538   -7.0260   -0.5766 C.3       1 <0>        -0.0224
     15 C14         3.5209   -7.6251   -1.9134 C.2       1 <0>        -0.0796
     16 C15         3.6901   -8.8853   -2.1802 C.2       1 <0>        -0.1805
     17 C16         4.2384   -9.8641   -1.1822 C.3       1 <0>         0.1014
     18 N1          4.0939   -9.3371    0.1782 N.4       1 <0>        -0.4966
     19 C17         5.7198  -10.1104   -1.4752 C.3       1 <0>        -0.1842
     20 C18         3.4762  -11.1857   -1.2974 C.3       1 <0>        -0.1725
     21 C19         2.9671   -6.7271   -2.9895 C.3       1 <0>        -0.1376
     22 C20         6.6346   -4.4353   -1.1197 C.ar      1 <0>        -0.1437
     23 C21         5.8549   -3.2686   -1.1871 C.ar      1 <0>         0.1431
     24 C22         6.4752   -2.0492   -1.4152 C.ar      1 <0>        -0.1187
     25 C23         7.8467   -1.9835   -1.5718 C.ar      1 <0>        -0.0736
     26 C24         8.6219   -3.1317   -1.5031 C.ar      1 <0>         0.0773
     27 C25         8.0208   -4.3636   -1.2762 C.ar      1 <0>         0.1261
     28 O2          8.7764   -5.4910   -1.2065 O.3       1 <0>        -0.3242
     29 C26         9.0040   -6.1960   -2.4284 C.3       1 <0>         0.0220
     30 O3          9.9713   -3.0517   -1.6581 O.3       1 <0>        -0.4834
     31 O4          4.5138   -3.3322   -1.0334 O.3       1 <0>        -0.1985
     32 C27        -0.5979   -4.2434   -0.5748 C.2       1 <0>         0.5922
     33 O5         -0.4718   -5.0347    0.3424 O.2       1 <0>        -0.5438
     34 N2         -1.6480   -4.3456   -1.4134 N.am      1 <0>        -0.6111
     35 C28        -2.6973   -5.3350   -1.1560 C.3       1 <0>         0.0828
     36 C29        -1.7402   -3.4673   -2.5823 C.3       1 <0>         0.0677
     37 H1          2.6302    0.5100   -1.3528 H         1 <0>         0.0791
     38 H2          1.0454    0.6531   -2.1503 H         1 <0>         0.0912
     39 H3          1.1757    0.8557   -0.3868 H         1 <0>         0.0911
     40 H4         -0.8254   -1.2503   -0.9056 H         1 <0>         0.1598
     41 H5          1.9828   -5.4560   -0.6131 H         1 <0>         0.1719
     42 H6          7.7359   -7.0286   -1.0758 H         1 <0>         0.1734
     43 H7          6.6593   -8.9770   -0.1764 H         1 <0>         0.1649
     44 H8          4.6869   -7.6595    1.2816 H         1 <0>         0.1551
     45 H9          2.9202   -6.8324   -0.0484 H         1 <0>         0.1300
     46 H10         3.4244   -9.2448   -3.1633 H         1 <0>         0.1537
     47 H11         4.5645   -9.9487    0.8283 H         1 <0>         0.4340
     48 H12         6.1881   -9.1774   -1.7888 H         1 <0>         0.1017
     49 H13         6.2117  -10.4794   -0.5753 H         1 <0>         0.0847
     50 H14         5.8148  -10.8498   -2.2705 H         1 <0>         0.1028
     51 H15         3.5943  -11.5867   -2.3040 H         1 <0>         0.1080
     52 H16         3.8725  -11.8980   -0.5737 H         1 <0>         0.0850
     53 H17         2.4187  -11.0139   -1.0965 H         1 <0>         0.0838
     54 H18         3.7878   -6.3130   -3.5751 H         1 <0>         0.0809
     55 H19         2.3103   -7.3034   -3.6411 H         1 <0>         0.0802
     56 H20         2.4026   -5.9155   -2.5305 H         1 <0>         0.0827
     57 H21         5.8839   -1.1472   -1.4709 H         1 <0>         0.1546
     58 H22         8.3195   -1.0290   -1.7498 H         1 <0>         0.1569
     59 H23         9.5169   -5.5429   -3.1346 H         1 <0>         0.0648
     60 H24         9.6198   -7.0737   -2.2322 H         1 <0>         0.1064
     61 H25         8.0491   -6.5090   -2.8506 H         1 <0>         0.0497
     62 H26        10.4546   -2.9135   -0.8320 H         1 <0>         0.4001
     63 H27        -3.4721   -4.8892   -0.5323 H         1 <0>         0.0596
     64 H28        -3.1330   -5.6570   -2.1019 H         1 <0>         0.0735
     65 H29        -2.2676   -6.1951   -0.6425 H         1 <0>         0.0774
     66 H30        -0.9184   -2.7514   -2.5645 H         1 <0>         0.0881
     67 H31        -1.6816   -4.0653   -3.4916 H         1 <0>         0.0626
     68 H32        -2.6892   -2.9316   -2.5603 H         1 <0>         0.0674
     69 H33         3.1147   -9.2817    0.4152 H         1 <0>         0.4328
@<TRIPOS>BOND
     1    1    2 1
     2    1   37 1
     3    1   38 1
     4    1   39 1
     5    2    6 1
     6    2    3 2
     7    3    4 1
     8    3   40 1
     9    4    5 2
    10    4   32 1
    11    5    6 1
    12    5    7 1
    13    7    8 2
    14    7   41 1
    15    8   31 1
    16    8    9 1
    17    9   14 1
    18    9   10 2
    19   10   11 1
    20   10   22 1
    21   11   12 2
    22   11   42 1
    23   12   13 1
    24   12   43 1
    25   13   18 1
    26   13   14 1
    27   13   44 1
    28   14   15 1
    29   14   45 1
    30   15   16 2
    31   15   21 1
    32   16   17 1
    33   16   46 1
    34   17   18 1
    35   17   19 1
    36   17   20 1
    37   18   47 1
    38   18   69 1
    39   19   48 1
    40   19   49 1
    41   19   50 1
    42   20   51 1
    43   20   52 1
    44   20   53 1
    45   21   54 1
    46   21   55 1
    47   21   56 1
    48   22   27 ar
    49   22   23 ar
    50   23   24 ar
    51   23   31 1
    52   24   25 ar
    53   24   57 1
    54   25   26 ar
    55   25   58 1
    56   26   27 ar
    57   26   30 1
    58   27   28 1
    59   28   29 1
    60   29   59 1
    61   29   60 1
    62   29   61 1
    63   30   62 1
    64   32   33 2
    65   32   34 am
    66   34   35 1
    67   34   36 1
    68   35   63 1
    69   35   64 1
    70   35   65 1
    71   36   66 1
    72   36   67 1
    73   36   68 1
@<TRIPOS>MOLECULE
CHEMBL392091__6
   68    72     0     0     0
SMALL
USER_CHARGES

@<TRIPOS>ATOM
      1 C1         -0.3899    0.8691    0.0060 C.3       1 <0>        -0.0779
      2 C2         -0.1831   -0.6214    0.0870 C.2       1 <0>         0.0003
      3 C3         -1.1646   -1.5348    0.0984 C.2       1 <0>        -0.1856
      4 C4         -0.5077   -2.8465    0.1861 C.2       1 <0>        -0.2247
      5 C5          0.8674   -2.5680    0.2198 C.2       1 <0>         0.1087
      6 O1          1.0132   -1.2319    0.1528 O.3       1 <0>        -0.1546
      7 C6          1.9033   -3.5125    0.3025 C.2       1 <0>        -0.1197
      8 C7          3.2107   -3.0964    0.3270 C.2       1 <0>         0.1351
      9 C8          4.2943   -3.9551    0.4468 C.2       1 <0>        -0.1112
     10 C9          5.3595   -3.4990    1.2435 C.2       1 <0>        -0.0033
     11 C10         6.4666   -4.4141    1.5422 C.2       1 <0>        -0.1243
     12 C11         6.2597   -5.7399    1.4858 C.2       1 <0>        -0.1126
     13 C12         4.8947   -6.2118    1.0517 C.3       1 <0>         0.1193
     14 C13         4.4869   -5.3190   -0.1311 C.3       1 <0>        -0.0284
     15 C14         3.3813   -5.9057   -0.9229 C.2       1 <0>        -0.1110
     16 C15         2.9149   -7.1056   -0.6926 C.2       1 <0>        -0.1712
     17 C16         3.4980   -8.0389    0.3248 C.3       1 <0>         0.1447
     18 N1          4.8579   -7.6154    0.6867 N.3       1 <0>        -0.6621
     19 C17         3.5657   -9.4450   -0.2818 C.3       1 <0>        -0.1398
     20 C18         2.6060   -8.0785    1.5627 C.3       1 <0>        -0.1329
     21 C19         2.8227   -5.1687   -2.1212 C.3       1 <0>        -0.1204
     22 C20         5.3143   -2.1070    1.7106 C.ar      1 <0>        -0.1258
     23 C21         4.3358   -1.2534    1.1627 C.ar      1 <0>         0.1296
     24 C22         4.2749    0.0728    1.5506 C.ar      1 <0>        -0.1231
     25 C23         5.1650    0.5634    2.4875 C.ar      1 <0>        -0.0881
     26 C24         6.1211   -0.2693    3.0475 C.ar      1 <0>         0.0657
     27 C25         6.1992   -1.6054    2.6666 C.ar      1 <0>         0.1263
     28 O2          7.1316   -2.4035    3.2494 O.3       1 <0>        -0.3199
     29 C26         6.7190   -3.1550    4.3927 C.3       1 <0>         0.0345
     30 O3          6.9889    0.2194    3.9758 O.3       1 <0>        -0.4805
     31 O4          3.4426   -1.7513    0.2684 O.3       1 <0>        -0.2242
     32 C27        -1.1491   -4.1599    0.2294 C.2       1 <0>         0.5905
     33 O5         -0.8850   -4.9372    1.1290 O.2       1 <0>        -0.5318
     34 N2         -2.0326   -4.5103   -0.7262 N.am      1 <0>        -0.6136
     35 C28        -2.6083   -5.8574   -0.7332 C.3       1 <0>         0.0860
     36 C29        -2.4172   -3.5439   -1.7580 C.3       1 <0>         0.0691
     37 H1          0.5778    1.3709    0.0096 H         1 <0>         0.0781
     38 H2         -0.9220    1.1127   -0.9135 H         1 <0>         0.0883
     39 H3         -0.9749    1.2019    0.8634 H         1 <0>         0.0878
     40 H4         -2.2267   -1.3444    0.0522 H         1 <0>         0.1575
     41 H5          1.6711   -4.5663    0.3467 H         1 <0>         0.1706
     42 H6          7.4488   -4.0384    1.7854 H         1 <0>         0.1425
     43 H7          7.0322   -6.4422    1.7390 H         1 <0>         0.1392
     44 H8          4.2080   -6.0165    1.8768 H         1 <0>         0.0948
     45 H9          5.3715   -5.2607   -0.7936 H         1 <0>         0.0911
     46 H10         2.0647   -7.4382   -1.2650 H         1 <0>         0.1133
     47 H11         5.5139   -7.8321   -0.0486 H         1 <0>         0.3481
     48 H12         4.1948   -9.4269   -1.1718 H         1 <0>         0.0554
     49 H13         3.9885  -10.1356    0.4479 H         1 <0>         0.0687
     50 H14         2.5620   -9.7725   -0.5529 H         1 <0>         0.0651
     51 H15         1.6117   -8.4265    1.2830 H         1 <0>         0.0631
     52 H16         3.0354   -8.7586    2.2983 H         1 <0>         0.0665
     53 H17         2.5340   -7.0786    1.9907 H         1 <0>         0.0537
     54 H18         3.3724   -5.4608   -3.0160 H         1 <0>         0.0680
     55 H19         1.7692   -5.4202   -2.2436 H         1 <0>         0.0651
     56 H20         2.9243   -4.0945   -1.9668 H         1 <0>         0.0628
     57 H21         3.5319    0.7295    1.1219 H         1 <0>         0.1468
     58 H22         5.1145    1.6002    2.7833 H         1 <0>         0.1485
     59 H23         6.3051   -2.4796    5.1414 H         1 <0>         0.0455
     60 H24         5.9596   -3.8789    4.0970 H         1 <0>         0.0507
     61 H25         7.5776   -3.6797    4.8117 H         1 <0>         0.1011
     62 H26         6.6739    0.1436    4.8869 H         1 <0>         0.3872
     63 H27        -3.5233   -5.8645   -0.1409 H         1 <0>         0.0564
     64 H28        -2.8367   -6.1496   -1.7582 H         1 <0>         0.0712
     65 H29        -1.8933   -6.5603   -0.3058 H         1 <0>         0.0769
     66 H30        -1.8183   -2.6397   -1.6502 H         1 <0>         0.0884
     67 H31        -2.2467   -3.9774   -2.7434 H         1 <0>         0.0631
     68 H32        -3.4729   -3.2958   -1.6480 H         1 <0>         0.0611
@<TRIPOS>BOND
     1    1    2 1
     2    1   37 1
     3    1   38 1
     4    1   39 1
     5    2    6 1
     6    2    3 2
     7    3    4 1
     8    3   40 1
     9    4    5 2
    10    4   32 1
    11    5    6 1
    12    5    7 1
    13    7    8 2
    14    7   41 1
    15    8   31 1
    16    8    9 1
    17    9   14 1
    18    9   10 2
    19   10   11 1
    20   10   22 1
    21   11   12 2
    22   11   42 1
    23   12   13 1
    24   12   43 1
    25   13   18 1
    26   13   14 1
    27   13   44 1
    28   14   15 1
    29   14   45 1
    30   15   16 2
    31   15   21 1
    32   16   17 1
    33   16   46 1
    34   17   18 1
    35   17   19 1
    36   17   20 1
    37   18   47 1
    38   19   48 1
    39   19   49 1
    40   19   50 1
    41   20   51 1
    42   20   52 1
    43   20   53 1
    44   21   54 1
    45   21   55 1
    46   21   56 1
    47   22   27 ar
    48   22   23 ar
    49   23   24 ar
    50   23   31 1
    51   24   25 ar
    52   24   57 1
    53   25   26 ar
    54   25   58 1
    55   26   27 ar
    56   26   30 1
    57   27   28 1
    58   28   29 1
    59   29   59 1
    60   29   60 1
    61   29   61 1
    62   30   62 1
    63   32   33 2
    64   32   34 am
    65   34   35 1
    66   34   36 1
    67   35   63 1
    68   35   64 1
    69   35   65 1
    70   36   66 1
    71   36   67 1
    72   36   68 1
@<TRIPOS>MOLECULE
CHEMBL392091__7
   69    73     0     0     0
SMALL
USER_CHARGES

@<TRIPOS>ATOM
      1 C1         -0.3659    0.9445    0.0095 C.3       1 <0>        -0.0837
      2 C2         -0.1780   -0.5490    0.0818 C.2       1 <0>         0.0204
      3 C3         -1.1712   -1.4497    0.0920 C.2       1 <0>        -0.1902
      4 C4         -0.5309   -2.7703    0.1702 C.2       1 <0>        -0.2008
      5 C5          0.8477   -2.5097    0.2002 C.2       1 <0>         0.0799
      6 O1          1.0105   -1.1752    0.1398 O.3       1 <0>        -0.1520
      7 C6          1.8717   -3.4678    0.2739 C.2       1 <0>        -0.0856
      8 C7          3.1837   -3.0690    0.2958 C.2       1 <0>         0.1058
      9 C8          4.2591   -3.9394    0.4096 C.2       1 <0>        -0.1079
     10 C9          5.3169   -3.5022    1.2269 C.2       1 <0>        -0.0060
     11 C10         6.4212   -4.4234    1.5165 C.2       1 <0>        -0.0407
     12 C11         6.2160   -5.7468    1.4249 C.2       1 <0>        -0.2020
     13 C12         4.8540   -6.2111    0.9703 C.3       1 <0>         0.0493
     14 C13         4.4493   -5.2925   -0.1932 C.3       1 <0>        -0.0041
     15 C14         3.3349   -5.8609   -0.9888 C.2       1 <0>        -0.0813
     16 C15         2.8699   -7.0639   -0.7717 C.2       1 <0>        -0.1808
     17 C16         3.4615   -8.0123    0.2257 C.3       1 <0>         0.1003
     18 N1          4.8303   -7.6075    0.5744 N.4       1 <0>        -0.4865
     19 C17         3.5119   -9.4112   -0.4014 C.3       1 <0>        -0.1723
     20 C18         2.5859   -8.0664    1.4739 C.3       1 <0>        -0.1715
     21 C19         2.7680   -5.1034   -2.1693 C.3       1 <0>        -0.1316
     22 C20         5.2684   -2.1201    1.7224 C.ar      1 <0>        -0.1409
     23 C21         4.3133   -1.2472    1.1632 C.ar      1 <0>         0.1364
     24 C22         4.2561    0.0731    1.5694 C.ar      1 <0>        -0.1202
     25 C23         5.1222    0.5377    2.5417 C.ar      1 <0>        -0.0754
     26 C24         6.0494   -0.3160    3.1183 C.ar      1 <0>         0.0723
     27 C25         6.1261   -1.6458    2.7159 C.ar      1 <0>         0.1280
     28 O2          7.0294   -2.4658    3.3146 O.3       1 <0>        -0.3219
     29 C26         6.5698   -3.2338    4.4286 C.3       1 <0>         0.0325
     30 O3          6.8884    0.1457    4.0856 O.3       1 <0>        -0.4779
     31 O4          3.4350   -1.7259    0.2434 O.3       1 <0>        -0.2176
     32 C27        -1.1891   -4.0755    0.2089 C.2       1 <0>         0.5888
     33 O5         -0.9319   -4.8609    1.1036 O.2       1 <0>        -0.5380
     34 N2         -2.0803   -4.4094   -0.7454 N.am      1 <0>        -0.6094
     35 C28        -2.6731   -5.7491   -0.7575 C.3       1 <0>         0.0845
     36 C29        -2.4561   -3.4328   -1.7706 C.3       1 <0>         0.0652
     37 H1          0.6082    1.4338    0.0122 H         1 <0>         0.0809
     38 H2         -0.8983    1.1998   -0.9067 H         1 <0>         0.0937
     39 H3         -0.9434    1.2801    0.8709 H         1 <0>         0.0929
     40 H4         -2.2309   -1.2454    0.0508 H         1 <0>         0.1626
     41 H5          1.6260   -4.5188    0.3134 H         1 <0>         0.1674
     42 H6          7.3992   -4.0523    1.7833 H         1 <0>         0.1624
     43 H7          6.9881   -6.4547    1.6625 H         1 <0>         0.1575
     44 H8          4.1645   -6.0368    1.7967 H         1 <0>         0.1483
     45 H9          5.3304   -5.2255   -0.8590 H         1 <0>         0.1222
     46 H10         2.0142   -7.3880   -1.3413 H         1 <0>         0.1546
     47 H11         5.4335   -7.7497   -0.2275 H         1 <0>         0.4294
     48 H12         4.1284   -9.3846   -1.2999 H         1 <0>         0.0839
     49 H13         3.9405  -10.1143    0.3127 H         1 <0>         0.0859
     50 H14         2.5025   -9.7287   -0.6627 H         1 <0>         0.1096
     51 H15         1.5868   -8.4074    1.2023 H         1 <0>         0.1112
     52 H16         3.0225   -8.7580    2.1943 H         1 <0>         0.0856
     53 H17         2.5226   -7.0724    1.9167 H         1 <0>         0.0801
     54 H18         3.3096   -5.3814   -3.0734 H         1 <0>         0.0864
     55 H19         1.7130   -5.3508   -2.2871 H         1 <0>         0.0808
     56 H20         2.8730   -4.0320   -1.9979 H         1 <0>         0.0767
     57 H21         3.5364    0.7464    1.1271 H         1 <0>         0.1519
     58 H22         5.0756    1.5708    2.8515 H         1 <0>         0.1548
     59 H23         5.8131   -3.9431    4.0935 H         1 <0>         0.0444
     60 H24         7.4078   -3.7763    4.8664 H         1 <0>         0.1043
     61 H25         6.1381   -2.5678    5.1757 H         1 <0>         0.0518
     62 H26         6.5407    0.0559    4.9835 H         1 <0>         0.3918
     63 H27        -3.5860   -5.7478   -0.1620 H         1 <0>         0.0603
     64 H28        -2.9088   -6.0328   -1.7832 H         1 <0>         0.0745
     65 H29        -1.9656   -6.4633   -0.3364 H         1 <0>         0.0751
     66 H30        -1.8455   -2.5367   -1.6600 H         1 <0>         0.0885
     67 H31        -2.2944   -3.8630   -2.7590 H         1 <0>         0.0668
     68 H32        -3.5082   -3.1720   -1.6556 H         1 <0>         0.0662
     69 H33         5.1667   -8.1886    1.3329 H         1 <0>         0.4330
@<TRIPOS>BOND
     1    1    2 1
     2    1   37 1
     3    1   38 1
     4    1   39 1
     5    2    6 1
     6    2    3 2
     7    3    4 1
     8    3   40 1
     9    4    5 2
    10    4   32 1
    11    5    6 1
    12    5    7 1
    13    7    8 2
    14    7   41 1
    15    8   31 1
    16    8    9 1
    17    9   14 1
    18    9   10 2
    19   10   11 1
    20   10   22 1
    21   11   12 2
    22   11   42 1
    23   12   13 1
    24   12   43 1
    25   13   18 1
    26   13   14 1
    27   13   44 1
    28   14   15 1
    29   14   45 1
    30   15   16 2
    31   15   21 1
    32   16   17 1
    33   16   46 1
    34   17   18 1
    35   17   19 1
    36   17   20 1
    37   18   47 1
    38   18   69 1
    39   19   48 1
    40   19   49 1
    41   19   50 1
    42   20   51 1
    43   20   52 1
    44   20   53 1
    45   21   54 1
    46   21   55 1
    47   21   56 1
    48   22   27 ar
    49   22   23 ar
    50   23   24 ar
    51   23   31 1
    52   24   25 ar
    53   24   57 1
    54   25   26 ar
    55   25   58 1
    56   26   27 ar
    57   26   30 1
    58   27   28 1
    59   28   29 1
    60   29   59 1
    61   29   60 1
    62   29   61 1
    63   30   62 1
    64   32   33 2
    65   32   34 am
    66   34   35 1
    67   34   36 1
    68   35   63 1
    69   35   64 1
    70   35   65 1
    71   36   66 1
    72   36   67 1
    73   36   68 1
@<TRIPOS>MOLECULE
CHEMBL184313
   59    62     0     0     0
SMALL
USER_CHARGES

@<TRIPOS>ATOM
      1 C1         -0.2510    1.5218    0.1631 C.3       1 <0>        -0.1545
      2 C2         -0.2303   -0.0081    0.1547 C.3       1 <0>        -0.1253
      3 C3          0.6259   -0.5129    1.3179 C.3       1 <0>        -0.1203
      4 C4          0.6466   -2.0427    1.3095 C.3       1 <0>        -0.1192
      5 C5          1.5028   -2.5476    2.4727 C.3       1 <0>        -0.1146
      6 C6          1.5233   -4.0555    2.4644 C.3       1 <0>        -0.0613
      7 H1          0.4582   -4.3912    2.4727 H         1 <0>         0.0753
      8 C7          2.1485   -4.6442    1.1987 C.3       1 <0>        -0.0962
      9 C8          1.8527   -6.1290    1.1379 C.3       1 <0>        -0.0480
     10 C9          0.3551   -6.4241    0.9516 C.3       1 <0>         0.1077
     11 H2         -0.2543   -5.7631    1.5683 H         1 <0>         0.0620
     12 C10         0.1985   -7.8907    1.4120 C.3       1 <0>        -0.1584
     13 C11         1.4102   -8.2062    2.3061 C.3       1 <0>        -0.1209
     14 C12         2.2448   -6.9018    2.4019 C.3       1 <0>        -0.0682
     15 C13         1.8151   -6.2059    3.7011 C.3       1 <0>        -0.0531
     16 C14         2.1911   -4.7376    3.6343 C.2       1 <0>        -0.0476
     17 C15         3.0853   -4.2052    4.4455 C.2       1 <0>        -0.1186
     18 C16         3.8294   -2.9239    4.1494 C.3       1 <0>        -0.0725
     19 C17         5.3022   -3.0572    4.5560 C.3       1 <0>        -0.1704
     20 C18         5.4133   -3.5750    5.9619 C.2       1 <0>         0.3889
     21 O1          6.2601   -3.1312    6.7066 O.2       1 <0>        -0.4685
     22 C19         4.5312   -4.5713    6.4130 C.2       1 <0>        -0.2509
     23 C20         3.4584   -4.9149    5.6780 C.2       1 <0>         0.0223
     24 C21         2.5695   -6.0640    6.0992 C.3       1 <0>        -0.0974
     25 C22         2.4073   -6.9608    4.8737 C.3       1 <0>        -0.1116
     26 O2         -0.0139   -6.2891   -0.4245 O.3       1 <0>        -0.5591
     27 C23         2.6179   -6.7148   -0.0554 C.3       1 <0>        -0.1337
     28 H3          0.7659    1.8995    0.0565 H         1 <0>         0.0535
     29 H4         -0.8610    1.8814   -0.6656 H         1 <0>         0.0533
     30 H5         -0.6727    1.8743    1.1044 H         1 <0>         0.0531
     31 H6         -1.2471   -0.3858    0.2613 H         1 <0>         0.0596
     32 H7          0.1914   -0.3605   -0.7866 H         1 <0>         0.0606
     33 H8          1.6428   -0.1351    1.2113 H         1 <0>         0.0615
     34 H9          0.2042   -0.1604    2.2592 H         1 <0>         0.0605
     35 H10        -0.3702   -2.4205    1.4161 H         1 <0>         0.0597
     36 H11         1.0684   -2.3952    0.3682 H         1 <0>         0.0661
     37 H12         2.5197   -2.1698    2.3660 H         1 <0>         0.0727
     38 H13         1.0811   -2.1951    3.4139 H         1 <0>         0.0669
     39 H14         1.7264   -4.1587    0.3236 H         1 <0>         0.0794
     40 H15         3.2255   -4.4971    1.2248 H         1 <0>         0.0673
     41 H16        -0.7250   -8.0025    1.9850 H         1 <0>         0.0644
     42 H17         0.1800   -8.5583    0.5501 H         1 <0>         0.0753
     43 H18         1.0730   -8.5118    3.2975 H         1 <0>         0.0696
     44 H19         2.0055   -9.0051    1.8620 H         1 <0>         0.0673
     45 H20         3.3184   -7.1175    2.4131 H         1 <0>         0.0861
     46 H21         0.7318   -6.2509    3.7663 H         1 <0>         0.0781
     47 H22         3.8341   -2.7323    3.0721 H         1 <0>         0.0886
     48 H23         3.3751   -2.0953    4.6841 H         1 <0>         0.0794
     49 H24         5.7979   -3.7495    3.8747 H         1 <0>         0.0976
     50 H25         5.7837   -2.0811    4.4886 H         1 <0>         0.0949
     51 H26         4.7187   -5.0630    7.3572 H         1 <0>         0.1349
     52 H27         3.0396   -6.6184    6.9075 H         1 <0>         0.0846
     53 H28         1.6006   -5.6826    6.4120 H         1 <0>         0.0865
     54 H29         1.7569   -7.7969    5.1326 H         1 <0>         0.0761
     55 H30         3.3868   -7.3507    4.5934 H         1 <0>         0.0695
     56 H31        -0.9486   -6.4640   -0.6001 H         1 <0>         0.3766
     57 H32         3.6874   -6.5597    0.0872 H         1 <0>         0.0500
     58 H33         2.4125   -7.7827   -0.1300 H         1 <0>         0.0546
     59 H34         2.2978   -6.2184   -0.9715 H         1 <0>         0.0659
@<TRIPOS>BOND
     1    1    2 1
     2    1   28 1
     3    1   29 1
     4    1   30 1
     5    2    3 1
     6    2   31 1
     7    2   32 1
     8    3    4 1
     9    3   33 1
    10    3   34 1
    11    4    5 1
    12    4   35 1
    13    4   36 1
    14    5    6 1
    15    5   37 1
    16    5   38 1
    17    6    7 1
    18    6   16 1
    19    6    8 1
    20    8    9 1
    21    8   39 1
    22    8   40 1
    23    9   14 1
    24    9   10 1
    25    9   27 1
    26   10   11 1
    27   10   12 1
    28   10   26 1
    29   12   13 1
    30   12   41 1
    31   12   42 1
    32   13   14 1
    33   13   43 1
    34   13   44 1
    35   14   15 1
    36   14   45 1
    37   15   25 1
    38   15   16 1
    39   15   46 1
    40   16   17 2
    41   17   23 1
    42   17   18 1
    43   18   19 1
    44   18   47 1
    45   18   48 1
    46   19   20 1
    47   19   49 1
    48   19   50 1
    49   20   21 2
    50   20   22 1
    51   22   23 2
    52   22   51 1
    53   23   24 1
    54   24   25 1
    55   24   52 1
    56   24   53 1
    57   25   54 1
    58   25   55 1
    59   26   56 1
    60   27   57 1
    61   27   58 1
    62   27   59 1
@<TRIPOS>MOLECULE
CHEMBL184313__1
   59    62     0     0     0
SMALL
USER_CHARGES

@<TRIPOS>ATOM
      1 C1         -0.3276    1.4956    4.7723 C.3       1 <0>        -0.1542
      2 C2         -0.3072   -0.0342    4.7636 C.3       1 <0>        -0.1253
      3 C3          0.5894   -0.5258    3.6255 C.3       1 <0>        -0.1193
      4 C4          0.6098   -2.0557    3.6168 C.3       1 <0>        -0.1222
      5 C5          1.5064   -2.5473    2.4787 C.3       1 <0>        -0.1301
      6 C6          1.5269   -4.0771    2.4700 C.3       1 <0>        -0.0633
      7 H1          0.5057   -4.4582    2.4803 H         1 <0>         0.0909
      8 C7          2.2492   -4.5750    1.2207 C.3       1 <0>        -0.1053
      9 C8          3.6982   -4.0751    1.2157 C.3       1 <0>        -0.0406
     10 C9          4.4076   -4.8062    0.0430 C.3       1 <0>         0.1028
     11 H2          3.6896   -5.0362   -0.7442 H         1 <0>         0.0578
     12 C10         4.9825   -6.1083    0.6321 C.3       1 <0>        -0.1590
     13 C11         4.6465   -6.0960    2.1420 C.3       1 <0>        -0.1164
     14 C12         4.4484   -4.6012    2.4488 C.3       1 <0>        -0.0704
     15 C13         3.7525   -4.3547    3.7650 C.3       1 <0>        -0.0428
     16 C14         2.2746   -4.5854    3.6878 C.2       1 <0>        -0.0400
     17 C15         1.5828   -5.2098    4.6358 C.2       1 <0>        -0.1352
     18 C16         0.0933   -5.4241    4.5016 C.3       1 <0>        -0.0768
     19 C17        -0.2402   -6.8455    4.9650 C.3       1 <0>        -0.1659
     20 C18         0.3738   -7.1058    6.3138 C.2       1 <0>         0.3877
     21 O1         -0.2251   -7.7911    7.1183 O.2       1 <0>        -0.4721
     22 C19         1.6273   -6.5721    6.6613 C.2       1 <0>        -0.2525
     23 C20         2.2443   -5.6857    5.8519 C.2       1 <0>         0.0293
     24 C21         3.6176   -5.1428    6.1617 C.3       1 <0>        -0.0959
     25 C22         4.4329   -5.1545    4.8667 C.3       1 <0>        -0.1134
     26 O2          5.4618   -3.9934   -0.4766 O.3       1 <0>        -0.5610
     27 C23         3.7790   -2.5517    1.0990 C.3       1 <0>        -0.1409
     28 H3         -0.7159    1.8592    3.8209 H         1 <0>         0.0532
     29 H4         -0.9663    1.8459    5.5831 H         1 <0>         0.0530
     30 H5          0.6849    1.8717    4.9190 H         1 <0>         0.0530
     31 H6          0.0811   -0.3978    5.7150 H         1 <0>         0.0593
     32 H7         -1.3197   -0.4103    4.6168 H         1 <0>         0.0598
     33 H8          0.2011   -0.1623    2.6741 H         1 <0>         0.0602
     34 H9          1.6019   -0.1498    3.7722 H         1 <0>         0.0596
     35 H10         0.9981   -2.4193    4.5682 H         1 <0>         0.0618
     36 H11        -0.4027   -2.4317    3.4700 H         1 <0>         0.0586
     37 H12         1.1182   -2.1837    1.5273 H         1 <0>         0.0673
     38 H13         2.5189   -2.1713    2.6254 H         1 <0>         0.0889
     39 H14         2.2429   -5.6649    1.2098 H         1 <0>         0.0678
     40 H15         1.7356   -4.2035    0.3340 H         1 <0>         0.0690
     41 H16         4.5194   -6.9712    0.1535 H         1 <0>         0.0675
     42 H17         6.0629   -6.1373    0.4902 H         1 <0>         0.0736
     43 H18         3.7299   -6.6531    2.3363 H         1 <0>         0.0690
     44 H19         5.4745   -6.5014    2.7234 H         1 <0>         0.0690
     45 H20         5.4275   -4.1239    2.4878 H         1 <0>         0.0768
     46 H21         3.8907   -3.3005    4.0051 H         1 <0>         0.0809
     47 H22        -0.4375   -4.7028    5.1229 H         1 <0>         0.0792
     48 H23        -0.2017   -5.3003    3.4597 H         1 <0>         0.0908
     49 H24        -1.3222   -6.9594    5.0322 H         1 <0>         0.0937
     50 H25         0.1530   -7.5624    4.2442 H         1 <0>         0.0980
     51 H26         2.1004   -6.8738    7.5841 H         1 <0>         0.1335
     52 H27         3.5348   -4.1223    6.5358 H         1 <0>         0.0882
     53 H28         4.1028   -5.7716    6.9082 H         1 <0>         0.0844
     54 H29         4.5555   -6.1851    4.5335 H         1 <0>         0.0719
     55 H30         5.4162   -4.7261    5.0610 H         1 <0>         0.0755
     56 H31         5.9430   -4.3963   -1.2122 H         1 <0>         0.3760
     57 H32         3.8610   -2.1149    2.0943 H         1 <0>         0.0626
     58 H33         4.6538   -2.2784    0.5090 H         1 <0>         0.0721
     59 H34         2.8797   -2.1765    0.6105 H         1 <0>         0.0599
@<TRIPOS>BOND
     1    1    2 1
     2    1   28 1
     3    1   29 1
     4    1   30 1
     5    2    3 1
     6    2   31 1
     7    2   32 1
     8    3    4 1
     9    3   33 1
    10    3   34 1
    11    4    5 1
    12    4   35 1
    13    4   36 1
    14    5    6 1
    15    5   37 1
    16    5   38 1
    17    6    7 1
    18    6   16 1
    19    6    8 1
    20    8    9 1
    21    8   39 1
    22    8   40 1
    23    9   14 1
    24    9   10 1
    25    9   27 1
    26   10   11 1
    27   10   12 1
    28   10   26 1
    29   12   13 1
    30   12   41 1
    31   12   42 1
    32   13   14 1
    33   13   43 1
    34   13   44 1
    35   14   15 1
    36   14   45 1
    37   15   25 1
    38   15   16 1
    39   15   46 1
    40   16   17 2
    41   17   23 1
    42   17   18 1
    43   18   19 1
    44   18   47 1
    45   18   48 1
    46   19   20 1
    47   19   49 1
    48   19   50 1
    49   20   21 2
    50   20   22 1
    51   22   23 2
    52   22   51 1
    53   23   24 1
    54   24   25 1
    55   24   52 1
    56   24   53 1
    57   25   54 1
    58   25   55 1
    59   26   56 1
    60   27   57 1
    61   27   58 1
    62   27   59 1
@<TRIPOS>MOLECULE
CHEMBL184313__2
   59    62     0     0     0
SMALL
USER_CHARGES

@<TRIPOS>ATOM
      1 C1          0.0595    1.5439   -0.0690 C.3       1 <0>        -0.1543
      2 C2          0.0710    0.0139   -0.0724 C.3       1 <0>        -0.1250
      3 C3          0.7802   -0.4935    1.1847 C.3       1 <0>        -0.1192
      4 C4          0.7918   -2.0235    1.1813 C.3       1 <0>        -0.1207
      5 C5          1.5010   -2.5310    2.4384 C.3       1 <0>        -0.1653
      6 C6          1.5126   -4.0609    2.4350 C.3       1 <0>        -0.0465
      7 H1          0.4837   -4.4207    2.4308 H         1 <0>         0.0822
      8 C7          2.2139   -4.5488    1.1612 C.3       1 <0>        -0.1080
      9 C8          3.7102   -4.4356    1.4217 C.3       1 <0>        -0.0508
     10 C9          4.6059   -4.7056    0.2135 C.3       1 <0>         0.1110
     11 H2          4.0875   -5.3394   -0.5061 H         1 <0>         0.0577
     12 C10         5.8488   -5.4386    0.7748 C.3       1 <0>        -0.1573
     13 C11         5.5899   -5.6440    2.2919 C.3       1 <0>        -0.1119
     14 C12         4.0630   -5.5940    2.3890 C.3       1 <0>        -0.0803
     15 C13         3.4570   -5.3467    3.7235 C.3       1 <0>        -0.0440
     16 C14         2.1903   -4.5437    3.6831 C.2       1 <0>        -0.0386
     17 C15         1.6564   -4.2229    4.8730 C.2       1 <0>        -0.1472
     18 C16         0.3702   -3.4360    4.9448 C.3       1 <0>        -0.0757
     19 C17        -0.5391   -4.0933    5.9891 C.3       1 <0>        -0.1668
     20 C18         0.2251   -4.3066    7.2670 C.2       1 <0>         0.3867
     21 O1         -0.3584   -4.2061    8.3276 O.2       1 <0>        -0.4738
     22 C19         1.5928   -4.6189    7.2683 C.2       1 <0>        -0.2581
     23 C20         2.3136   -4.6143    6.1166 C.2       1 <0>         0.0326
     24 C21         3.7736   -4.9854    6.1497 C.3       1 <0>        -0.0986
     25 C22         4.3989   -4.7730    4.7712 C.3       1 <0>        -0.1122
     26 O2          4.9916   -3.4745   -0.4010 O.3       1 <0>        -0.5587
     27 C23         4.0396   -3.0848    2.0602 C.3       1 <0>        -0.1363
     28 H3          1.0843    1.9149   -0.0552 H         1 <0>         0.0534
     29 H4         -0.4458    1.9054   -0.9646 H         1 <0>         0.0528
     30 H5         -0.4683    1.9013    0.8152 H         1 <0>         0.0529
     31 H6         -0.9538   -0.3571   -0.0862 H         1 <0>         0.0593
     32 H7          0.5988   -0.3434   -0.9566 H         1 <0>         0.0601
     33 H8          1.8051   -0.1225    1.1985 H         1 <0>         0.0609
     34 H9          0.2525   -0.1361    2.0689 H         1 <0>         0.0594
     35 H10        -0.2330   -2.3945    1.1675 H         1 <0>         0.0575
     36 H11         1.3196   -2.3809    0.2971 H         1 <0>         0.0677
     37 H12         2.5259   -2.1599    2.4522 H         1 <0>         0.1071
     38 H13         0.9733   -2.1736    3.3226 H         1 <0>         0.0717
     39 H14         1.9468   -5.5866    0.9617 H         1 <0>         0.0651
     40 H15         1.9332   -3.9204    0.3160 H         1 <0>         0.0812
     41 H16         5.9682   -6.4034    0.2818 H         1 <0>         0.0674
     42 H17         6.7406   -4.8296    0.6267 H         1 <0>         0.0740
     43 H18         5.9656   -6.6133    2.6195 H         1 <0>         0.0677
     44 H19         6.0397   -4.8385    2.8724 H         1 <0>         0.0746
     45 H20         3.6519   -6.5224    1.9925 H         1 <0>         0.0736
     46 H21         3.1576   -6.3246    4.1006 H         1 <0>         0.0723
     47 H22         0.5841   -2.4084    5.2387 H         1 <0>         0.0800
     48 H23        -0.1211   -3.4455    3.9718 H         1 <0>         0.0919
     49 H24        -1.3953   -3.4470    6.1824 H         1 <0>         0.0938
     50 H25        -0.8893   -5.0540    5.6115 H         1 <0>         0.0980
     51 H26         2.0804   -4.8669    8.1995 H         1 <0>         0.1323
     52 H27         4.2886   -4.3621    6.8806 H         1 <0>         0.0906
     53 H28         3.8740   -6.0325    6.4355 H         1 <0>         0.0895
     54 H29         5.3590   -5.2867    4.7229 H         1 <0>         0.0813
     55 H30         4.5421   -3.7073    4.5925 H         1 <0>         0.0740
     56 H31         5.5618   -3.5826   -1.1745 H         1 <0>         0.3757
     57 H32         3.6010   -3.0374    3.0569 H         1 <0>         0.0721
     58 H33         5.1213   -2.9717    2.1335 H         1 <0>         0.0518
     59 H34         3.6313   -2.2829    1.4450 H         1 <0>         0.0694
@<TRIPOS>BOND
     1    1    2 1
     2    1   28 1
     3    1   29 1
     4    1   30 1
     5    2    3 1
     6    2   31 1
     7    2   32 1
     8    3    4 1
     9    3   33 1
    10    3   34 1
    11    4    5 1
    12    4   35 1
    13    4   36 1
    14    5    6 1
    15    5   37 1
    16    5   38 1
    17    6    7 1
    18    6   16 1
    19    6    8 1
    20    8    9 1
    21    8   39 1
    22    8   40 1
    23    9   14 1
    24    9   10 1
    25    9   27 1
    26   10   11 1
    27   10   12 1
    28   10   26 1
    29   12   13 1
    30   12   41 1
    31   12   42 1
    32   13   14 1
    33   13   43 1
    34   13   44 1
    35   14   15 1
    36   14   45 1
    37   15   25 1
    38   15   16 1
    39   15   46 1
    40   16   17 2
    41   17   23 1
    42   17   18 1
    43   18   19 1
    44   18   47 1
    45   18   48 1
    46   19   20 1
    47   19   49 1
    48   19   50 1
    49   20   21 2
    50   20   22 1
    51   22   23 2
    52   22   51 1
    53   23   24 1
    54   24   25 1
    55   24   52 1
    56   24   53 1
    57   25   54 1
    58   25   55 1
    59   26   56 1
    60   27   57 1
    61   27   58 1
    62   27   59 1
@<TRIPOS>MOLECULE
CHEMBL184313__3
   59    62     0     0     0
SMALL
USER_CHARGES

@<TRIPOS>ATOM
      1 C1         -0.0187    1.5258    0.0104 C.3       1 <0>        -0.1543
      2 C2          0.0021   -0.0041    0.0020 C.3       1 <0>        -0.1254
      3 C3          0.7421   -0.5109    1.2415 C.3       1 <0>        -0.1197
      4 C4          0.7628   -2.0407    1.2331 C.3       1 <0>        -0.1223
      5 C5          1.5028   -2.5476    2.4727 C.3       1 <0>        -0.1150
      6 C6          1.5236   -4.0779    2.4642 C.3       1 <0>        -0.0542
      7 H1          0.4701   -4.4119    2.3800 H         1 <0>         0.0793
      8 C7          2.2301   -4.5978    1.2174 C.3       1 <0>        -0.1021
      9 C8          3.7066   -4.8190    1.4274 C.3       1 <0>        -0.0484
     10 C9          4.3900   -5.6425    0.3187 C.3       1 <0>         0.1049
     11 H2          3.6999   -6.3872   -0.0661 H         1 <0>         0.0585
     12 C10         5.5936   -6.3157    1.0206 C.3       1 <0>        -0.1569
     13 C11         5.3927   -6.1045    2.5453 C.3       1 <0>        -0.1132
     14 C12         3.9091   -5.7316    2.6574 C.3       1 <0>        -0.0794
     15 C13         3.5168   -4.9740    3.9121 C.3       1 <0>        -0.0421
     16 C14         2.0590   -4.5983    3.7741 C.2       1 <0>        -0.0413
     17 C15         1.2140   -4.7092    4.8037 C.2       1 <0>        -0.1335
     18 C16        -0.2287   -4.2666    4.6981 C.3       1 <0>        -0.0775
     19 C17        -1.1191   -5.3405    5.3354 C.3       1 <0>        -0.1678
     20 C18        -0.6240   -5.6514    6.7223 C.2       1 <0>         0.3875
     21 O1         -1.4240   -5.9168    7.5958 O.2       1 <0>        -0.4707
     22 C19         0.7499   -5.6381    7.0190 C.2       1 <0>        -0.2522
     23 C20         1.6509   -5.2280    6.1015 C.2       1 <0>         0.0285
     24 C21         3.1333   -5.2930    6.3787 C.3       1 <0>        -0.0973
     25 C22         3.7992   -5.8537    5.1234 C.3       1 <0>        -0.1129
     26 O2          4.8370   -4.7730   -0.7204 O.3       1 <0>        -0.5575
     27 C23         4.4626   -3.4982    1.5609 C.3       1 <0>        -0.1290
     28 H3          1.0039    1.9031    0.0027 H         1 <0>         0.0533
     29 H4         -0.5459    1.8868   -0.8726 H         1 <0>         0.0532
     30 H5         -0.5289    1.8773    0.9072 H         1 <0>         0.0531
     31 H6         -1.0205   -0.3814    0.0098 H         1 <0>         0.0599
     32 H7          0.5123   -0.3556   -0.8948 H         1 <0>         0.0605
     33 H8          1.7647   -0.1336    1.2338 H         1 <0>         0.0611
     34 H9          0.2319   -0.1594    2.1383 H         1 <0>         0.0602
     35 H10        -0.2598   -2.4180    1.2409 H         1 <0>         0.0605
     36 H11         1.2730   -2.3923    0.3363 H         1 <0>         0.0680
     37 H12         2.5254   -2.1703    2.4649 H         1 <0>         0.0716
     38 H13         0.9926   -2.1961    3.3695 H         1 <0>         0.0648
     39 H14         1.7639   -5.5463    0.9072 H         1 <0>         0.0586
     40 H15         2.0829   -3.8860    0.3918 H         1 <0>         0.0780
     41 H16         5.6106   -7.3816    0.7909 H         1 <0>         0.0660
     42 H17         6.5247   -5.8509    0.6966 H         1 <0>         0.0743
     43 H18         5.5960   -7.0315    3.0865 H         1 <0>         0.0663
     44 H19         6.0327   -5.3069    2.9169 H         1 <0>         0.0719
     45 H20         3.2954   -6.6366    2.5625 H         1 <0>         0.0779
     46 H21         4.1080   -4.0686    4.0173 H         1 <0>         0.0920
     47 H22        -0.3539   -3.3291    5.2480 H         1 <0>         0.0782
     48 H23        -0.5273   -4.1200    3.6680 H         1 <0>         0.0897
     49 H24        -2.1432   -4.9728    5.3886 H         1 <0>         0.0941
     50 H25        -1.0862   -6.2428    4.7264 H         1 <0>         0.0983
     51 H26         1.0872   -5.9600    7.9937 H         1 <0>         0.1342
     52 H27         3.5155   -4.2952    6.5884 H         1 <0>         0.0892
     53 H28         3.3233   -5.9516    7.2254 H         1 <0>         0.0848
     54 H29         3.4147   -6.8540    4.9310 H         1 <0>         0.0679
     55 H30         4.8751   -5.9043    5.2813 H         1 <0>         0.0774
     56 H31         5.2772   -5.2277   -1.4515 H         1 <0>         0.3752
     57 H32         4.0828   -2.9476    2.4216 H         1 <0>         0.0545
     58 H33         5.5249   -3.6999    1.6985 H         1 <0>         0.0549
     59 H34         4.3194   -2.9048    0.6579 H         1 <0>         0.0644
@<TRIPOS>BOND
     1    1    2 1
     2    1   28 1
     3    1   29 1
     4    1   30 1
     5    2    3 1
     6    2   31 1
     7    2   32 1
     8    3    4 1
     9    3   33 1
    10    3   34 1
    11    4    5 1
    12    4   35 1
    13    4   36 1
    14    5    6 1
    15    5   37 1
    16    5   38 1
    17    6    7 1
    18    6   16 1
    19    6    8 1
    20    8    9 1
    21    8   39 1
    22    8   40 1
    23    9   14 1
    24    9   10 1
    25    9   27 1
    26   10   11 1
    27   10   12 1
    28   10   26 1
    29   12   13 1
    30   12   41 1
    31   12   42 1
    32   13   14 1
    33   13   43 1
    34   13   44 1
    35   14   15 1
    36   14   45 1
    37   15   25 1
    38   15   16 1
    39   15   46 1
    40   16   17 2
    41   17   23 1
    42   17   18 1
    43   18   19 1
    44   18   47 1
    45   18   48 1
    46   19   20 1
    47   19   49 1
    48   19   50 1
    49   20   21 2
    50   20   22 1
    51   22   23 2
    52   22   51 1
    53   23   24 1
    54   24   25 1
    55   24   52 1
    56   24   53 1
    57   25   54 1
    58   25   55 1
    59   26   56 1
    60   27   57 1
    61   27   58 1
    62   27   59 1
@<TRIPOS>MOLECULE
CHEMBL232376
   64    69     0     0     0
SMALL
USER_CHARGES

@<TRIPOS>ATOM
      1 C1          1.0857    1.1792   -0.4419 C.3       1 <0>        -0.1222
      2 C2          0.9666   -0.3207   -0.2872 C.2       1 <0>        -0.0948
      3 C3          0.9689   -1.0365   -1.3822 C.2       1 <0>        -0.1451
      4 C4          0.9442   -2.5358   -1.3881 C.3       1 <0>         0.1442
      5 N1          1.4091   -3.0514   -0.0912 N.3       1 <0>        -0.6666
      6 C5          0.6609   -2.4557    1.0022 C.3       1 <0>         0.1193
      7 C6          0.8807   -0.9355    1.0558 C.3       1 <0>         0.0086
      8 C7         -0.1052   -0.4144    2.0435 C.2       1 <0>        -0.1012
      9 C8         -0.1149   -1.0788    3.2680 C.2       1 <0>        -0.0133
     10 C9          0.7264   -2.2704    3.4327 C.2       1 <0>        -0.1190
     11 C10         1.0981   -2.9762    2.3528 C.2       1 <0>        -0.1218
     12 C11        -0.9609   -0.5317    4.3405 C.ar      1 <0>        -0.1166
     13 C12        -1.5849    0.7128    4.1328 C.ar      1 <0>         0.1277
     14 C13        -2.3653    1.2753    5.1261 C.ar      1 <0>        -0.1278
     15 C14        -2.5481    0.6112    6.3254 C.ar      1 <0>        -0.0885
     16 C15        -1.9550   -0.6226    6.5369 C.ar      1 <0>         0.0594
     17 C16        -1.1656   -1.2016    5.5471 C.ar      1 <0>         0.1244
     18 O1         -0.6217   -2.4259    5.7752 O.3       1 <0>        -0.3200
     19 C17        -1.4477   -3.5620    5.5122 C.3       1 <0>         0.0367
     20 O2         -2.1429   -1.2744    7.7170 O.3       1 <0>        -0.4807
     21 O3         -1.4333    1.3498    2.9409 O.3       1 <0>        -0.2320
     22 C18        -1.0701    0.5793    1.8773 C.2       1 <0>         0.1021
     23 C19        -1.7468    0.7489    0.7146 C.2       1 <0>        -0.1112
     24 C20        -2.6294    1.9097    0.5411 C.ar      1 <0>        -0.0392
     25 C21        -2.5052    3.0195    1.3839 C.ar      1 <0>        -0.1025
     26 C22        -3.3406    4.1059    1.2151 C.ar      1 <0>         0.0730
     27 C23        -4.3013    4.0988    0.2162 C.ar      1 <0>        -0.1099
     28 C24        -4.4334    3.0054   -0.6238 C.ar      1 <0>        -0.1776
     29 C25        -3.5989    1.9138   -0.4754 C.ar      1 <0>         0.1360
     30 O4         -3.7072    0.8408   -1.3037 O.3       1 <0>        -0.3217
     31 C26        -4.9118    0.7323   -2.0676 C.3       1 <0>         0.2201
     32 O5         -5.1873    2.0032   -2.6687 O.3       1 <0>        -0.3807
     33 C27        -5.4888    3.0184   -1.7011 C.3       1 <0>         0.1012
     34 F1         -3.2213    5.1792    2.0268 F         1 <0>        -0.1363
     35 C28         1.8876   -3.0396   -2.4854 C.3       1 <0>        -0.1350
     36 C29        -0.4683   -3.0302   -1.6839 C.3       1 <0>        -0.1745
     37 H1          2.1385    1.4612   -0.4493 H         1 <0>         0.0675
     38 H2          0.6207    1.4858   -1.3788 H         1 <0>         0.0670
     39 H3          0.5836    1.6713    0.3910 H         1 <0>         0.0643
     40 H4          0.9905   -0.5203   -2.3272 H         1 <0>         0.1153
     41 H5          1.3724   -4.0592   -0.0667 H         1 <0>         0.3502
     42 H6         -0.4021   -2.6536    0.9024 H         1 <0>         0.0524
     43 H7          1.8827   -0.7993    1.5251 H         1 <0>         0.0965
     44 H8          1.0732   -2.5758    4.4086 H         1 <0>         0.1404
     45 H9          1.6808   -3.8742    2.4347 H         1 <0>         0.1349
     46 H10        -2.8345    2.2352    4.9674 H         1 <0>         0.1463
     47 H11        -3.1556    1.0569    7.0983 H         1 <0>         0.1475
     48 H12        -2.3153   -3.5409    6.1717 H         1 <0>         0.0451
     49 H13        -1.7797   -3.5374    4.4743 H         1 <0>         0.0477
     50 H14        -0.8782   -4.4742    5.6900 H         1 <0>         0.1002
     51 H15        -2.9103   -1.8628    7.7235 H         1 <0>         0.3853
     52 H16        -1.6367    0.0302   -0.0840 H         1 <0>         0.1509
     53 H17        -1.7585    3.0263    2.1641 H         1 <0>         0.1590
     54 H18        -4.9518    4.9519    0.0921 H         1 <0>         0.1418
     55 H19        -4.7853   -0.0208   -2.8454 H         1 <0>         0.1448
     56 H20        -5.7363    0.4508   -1.4126 H         1 <0>         0.0650
     57 H21        -6.4663    2.8351   -1.2549 H         1 <0>         0.0794
     58 H22        -5.4909    3.9892   -2.1966 H         1 <0>         0.1181
     59 H23         2.8994   -2.6872   -2.2846 H         1 <0>         0.0657
     60 H24         1.8787   -4.1294   -2.5001 H         1 <0>         0.0566
     61 H25         1.5560   -2.6604   -3.4520 H         1 <0>         0.0623
     62 H26        -0.7856   -2.6614   -2.6593 H         1 <0>         0.0676
     63 H27        -0.4787   -4.1201   -1.6866 H         1 <0>         0.0583
     64 H28        -1.1500   -2.6622   -0.9171 H         1 <0>         0.0553
@<TRIPOS>BOND
     1    1    2 1
     2    1   37 1
     3    1   38 1
     4    1   39 1
     5    2    7 1
     6    2    3 2
     7    3    4 1
     8    3   40 1
     9    4    5 1
    10    4   35 1
    11    4   36 1
    12    5    6 1
    13    5   41 1
    14    6   11 1
    15    6    7 1
    16    6   42 1
    17    7    8 1
    18    7   43 1
    19    8   22 1
    20    8    9 2
    21    9   10 1
    22    9   12 1
    23   10   11 2
    24   10   44 1
    25   11   45 1
    26   12   17 ar
    27   12   13 ar
    28   13   14 ar
    29   13   21 1
    30   14   15 ar
    31   14   46 1
    32   15   16 ar
    33   15   47 1
    34   16   17 ar
    35   16   20 1
    36   17   18 1
    37   18   19 1
    38   19   48 1
    39   19   49 1
    40   19   50 1
    41   20   51 1
    42   21   22 1
    43   22   23 2
    44   23   24 1
    45   23   52 1
    46   24   29 ar
    47   24   25 ar
    48   25   26 ar
    49   25   53 1
    50   26   27 ar
    51   26   34 1
    52   27   28 ar
    53   27   54 1
    54   28   33 1
    55   28   29 ar
    56   29   30 1
    57   30   31 1
    58   31   32 1
    59   31   55 1
    60   31   56 1
    61   32   33 1
    62   33   57 1
    63   33   58 1
    64   35   59 1
    65   35   60 1
    66   35   61 1
    67   36   62 1
    68   36   63 1
    69   36   64 1
@<TRIPOS>MOLECULE
CHEMBL232376__1
   65    70     0     0     0
SMALL
USER_CHARGES

@<TRIPOS>ATOM
      1 C1          1.0576    1.1962   -0.4719 C.3       1 <0>        -0.1328
      2 C2          0.9354   -0.3038   -0.3224 C.2       1 <0>        -0.0716
      3 C3          0.9231   -1.0170   -1.4200 C.2       1 <0>        -0.1880
      4 C4          0.9000   -2.5154   -1.4295 C.3       1 <0>         0.1012
      5 N1          1.3831   -3.0412   -0.1446 N.4       1 <0>        -0.4881
      6 C5          0.6308   -2.4477    0.9481 C.3       1 <0>         0.0539
      7 C6          0.8600   -0.9297    1.0172 C.3       1 <0>        -0.0102
      8 C7         -0.1130   -0.4088    2.0173 C.2       1 <0>        -0.0960
      9 C8         -0.1297   -1.0893    3.2331 C.2       1 <0>        -0.0127
     10 C9          0.6994   -2.2911    3.3825 C.2       1 <0>        -0.0371
     11 C10         1.0627   -2.9862    2.2943 C.2       1 <0>        -0.2098
     12 C11        -0.9710   -0.5492    4.3128 C.ar      1 <0>        -0.1335
     13 C12        -1.5645    0.7143    4.1320 C.ar      1 <0>         0.1345
     14 C13        -2.3350    1.2725    5.1351 C.ar      1 <0>        -0.1248
     15 C14        -2.5422    0.5829    6.3162 C.ar      1 <0>        -0.0751
     16 C15        -1.9829   -0.6715    6.4991 C.ar      1 <0>         0.0656
     17 C16        -1.2011   -1.2447    5.5000 C.ar      1 <0>         0.1276
     18 O1         -0.6897   -2.4882    5.6986 O.3       1 <0>        -0.3235
     19 C17        -1.5419   -3.5956    5.3994 C.3       1 <0>         0.0336
     20 O2         -2.1982   -1.3494    7.6597 O.3       1 <0>        -0.4781
     21 O3         -1.3946    1.3700    2.9523 O.3       1 <0>        -0.2258
     22 C18        -1.0615    0.6041    1.8748 C.2       1 <0>         0.0777
     23 C19        -1.7541    0.7973    0.7256 C.2       1 <0>        -0.0831
     24 C20        -2.6169    1.9764    0.5777 C.ar      1 <0>        -0.0590
     25 C21        -2.4573    3.0756    1.4283 C.ar      1 <0>        -0.0961
     26 C22        -3.2743    4.1793    1.2835 C.ar      1 <0>         0.0749
     27 C23        -4.2515    4.2000    0.3010 C.ar      1 <0>        -0.0981
     28 C24        -4.4187    3.1174   -0.5466 C.ar      1 <0>        -0.1750
     29 C25        -3.6030    2.0087   -0.4223 C.ar      1 <0>         0.1418
     30 O4         -3.7458    0.9457   -1.2584 O.3       1 <0>        -0.3275
     31 C26        -4.9648    0.8675   -2.0027 C.3       1 <0>         0.2193
     32 O5         -5.2258    2.1490   -2.5876 O.3       1 <0>        -0.3776
     33 C27        -5.4915    3.1606   -1.6057 C.3       1 <0>         0.0981
     34 F1         -3.1208    5.2425    2.1028 F         1 <0>        -0.1317
     35 C28         1.8330   -3.0114   -2.5405 C.3       1 <0>        -0.1737
     36 C29        -0.5128   -3.0129   -1.7155 C.3       1 <0>        -0.1705
     37 H1          2.1112    1.4751   -0.4882 H         1 <0>         0.0841
     38 H2          0.5847    1.5083   -1.4030 H         1 <0>         0.0831
     39 H3          0.5650    1.6864    0.3679 H         1 <0>         0.0790
     40 H4          0.9290   -0.4980   -2.3640 H         1 <0>         0.1549
     41 H5          1.2748   -4.0474   -0.1330 H         1 <0>         0.4323
     42 H6         -0.4322   -2.6394    0.8442 H         1 <0>         0.1486
     43 H7          1.8672   -0.8041    1.4772 H         1 <0>         0.1194
     44 H8          1.0427   -2.6112    4.3550 H         1 <0>         0.1606
     45 H9          1.6370   -3.8904    2.3646 H         1 <0>         0.1562
     46 H10        -2.7763    2.2493    5.0003 H         1 <0>         0.1515
     47 H11        -3.1420    1.0241    7.0975 H         1 <0>         0.1538
     48 H12        -0.9983   -4.5264    5.5610 H         1 <0>         0.1035
     49 H13        -2.4159   -3.5676    6.0501 H         1 <0>         0.0515
     50 H14        -1.8615   -3.5374    4.3590 H         1 <0>         0.0456
     51 H15        -2.9806   -1.9176    7.6440 H         1 <0>         0.3901
     52 H16        -1.6713    0.0842   -0.0812 H         1 <0>         0.1484
     53 H17        -1.6977    3.0609    2.1959 H         1 <0>         0.1597
     54 H18        -4.8875    5.0665    0.1956 H         1 <0>         0.1468
     55 H19        -4.8659    0.1195   -2.7894 H         1 <0>         0.1458
     56 H20        -5.7836    0.5956   -1.3365 H         1 <0>         0.0675
     57 H21        -6.4647    2.9918   -1.1448 H         1 <0>         0.0836
     58 H22        -5.4832    4.1359   -2.0923 H         1 <0>         0.1220
     59 H23         2.8460   -2.6569   -2.3497 H         1 <0>         0.0838
     60 H24         1.8272   -4.1012   -2.5603 H         1 <0>         0.0849
     61 H25         1.4892   -2.6288   -3.5015 H         1 <0>         0.1096
     62 H26        -0.8384   -2.6429   -2.6877 H         1 <0>         0.1107
     63 H27        -0.5201   -4.1028   -1.7205 H         1 <0>         0.0851
     64 H28        -1.1897   -2.6485   -0.9427 H         1 <0>         0.0789
     65 H29         2.3669   -2.8215   -0.0444 H         1 <0>         0.4302
@<TRIPOS>BOND
     1    1    2 1
     2    1   37 1
     3    1   38 1
     4    1   39 1
     5    2    7 1
     6    2    3 2
     7    3    4 1
     8    3   40 1
     9    4    5 1
    10    4   35 1
    11    4   36 1
    12    5    6 1
    13    5   41 1
    14    5   65 1
    15    6   11 1
    16    6    7 1
    17    6   42 1
    18    7    8 1
    19    7   43 1
    20    8   22 1
    21    8    9 2
    22    9   10 1
    23    9   12 1
    24   10   11 2
    25   10   44 1
    26   11   45 1
    27   12   17 ar
    28   12   13 ar
    29   13   14 ar
    30   13   21 1
    31   14   15 ar
    32   14   46 1
    33   15   16 ar
    34   15   47 1
    35   16   17 ar
    36   16   20 1
    37   17   18 1
    38   18   19 1
    39   19   48 1
    40   19   49 1
    41   19   50 1
    42   20   51 1
    43   21   22 1
    44   22   23 2
    45   23   24 1
    46   23   52 1
    47   24   29 ar
    48   24   25 ar
    49   25   26 ar
    50   25   53 1
    51   26   27 ar
    52   26   34 1
    53   27   28 ar
    54   27   54 1
    55   28   33 1
    56   28   29 ar
    57   29   30 1
    58   30   31 1
    59   31   32 1
    60   31   55 1
    61   31   56 1
    62   32   33 1
    63   33   57 1
    64   33   58 1
    65   35   59 1
    66   35   60 1
    67   35   61 1
    68   36   62 1
    69   36   63 1
    70   36   64 1
@<TRIPOS>MOLECULE
CHEMBL232376__2
   64    69     0     0     0
SMALL
USER_CHARGES

@<TRIPOS>ATOM
      1 C1          1.5118    2.5968   -1.3118 C.3       1 <0>        -0.1283
      2 C2          1.6393    1.1124   -1.0854 C.2       1 <0>        -0.1055
      3 C3          1.7131    0.3326   -2.1209 C.2       1 <0>        -0.1781
      4 C4          1.8482   -1.1593   -2.0137 C.3       1 <0>         0.1391
      5 N1          1.4367   -1.6088   -0.6779 N.3       1 <0>        -0.6586
      6 C5          2.1418   -0.8449    0.3620 C.3       1 <0>         0.1176
      7 C6          1.6814    0.6050    0.3271 C.3       1 <0>        -0.0291
      8 C7          2.5851    1.4745    1.1566 C.2       1 <0>        -0.1136
      9 C8          3.9176    1.1815    1.2469 C.2       1 <0>         0.0100
     10 C9          4.4564   -0.0031    0.5696 C.2       1 <0>        -0.1523
     11 C10         3.6249   -0.9484    0.1460 C.2       1 <0>        -0.1101
     12 C11         4.7815    2.0790    2.0363 C.ar      1 <0>        -0.1236
     13 C12         4.1965    3.1752    2.6883 C.ar      1 <0>         0.1296
     14 C13         4.9951    4.0296    3.4325 C.ar      1 <0>        -0.1270
     15 C14         6.3554    3.8022    3.5320 C.ar      1 <0>        -0.0859
     16 C15         6.9384    2.7191    2.8920 C.ar      1 <0>         0.0631
     17 C16         6.1544    1.8510    2.1413 C.ar      1 <0>         0.1256
     18 O1          6.7211    0.7866    1.5139 O.3       1 <0>        -0.3175
     19 C17         6.9301   -0.3913    2.2955 C.3       1 <0>         0.0304
     20 O2          8.2781    2.5064    2.9986 O.3       1 <0>        -0.4805
     21 O3          2.8647    3.3951    2.5946 O.3       1 <0>        -0.2165
     22 C18         2.0770    2.5950    1.8455 C.2       1 <0>         0.1256
     23 C19         0.7495    2.8791    1.7517 C.2       1 <0>        -0.1661
     24 C20         0.2181    4.1104    2.3502 C.ar      1 <0>        -0.0271
     25 C21         1.0816    5.1588    2.6853 C.ar      1 <0>        -0.1172
     26 C22         0.5736    6.3122    3.2495 C.ar      1 <0>         0.0759
     27 C23        -0.7866    6.4327    3.4861 C.ar      1 <0>        -0.1167
     28 C24        -1.6508    5.4011    3.1587 C.ar      1 <0>        -0.1744
     29 C25        -1.1607    4.2437    2.5839 C.ar      1 <0>         0.1289
     30 O4         -2.0003    3.2299    2.2426 O.3       1 <0>        -0.3230
     31 C26        -3.3106    3.2544    2.8159 C.3       1 <0>         0.2201
     32 O5         -3.8487    4.5740    2.6688 O.3       1 <0>        -0.3816
     33 C27        -3.1267    5.5530    3.4293 C.3       1 <0>         0.1012
     34 F1          1.4056    7.3265    3.5724 F         1 <0>        -0.1377
     35 C28         3.3062   -1.5553   -2.2554 C.3       1 <0>        -0.1482
     36 C29         0.9627   -1.8260   -3.0684 C.3       1 <0>        -0.1391
     37 H1          2.5049    3.0428   -1.3652 H         1 <0>         0.0638
     38 H2          0.9816    2.7775   -2.2469 H         1 <0>         0.0630
     39 H3          0.9566    3.0437   -0.4871 H         1 <0>         0.0737
     40 H4          1.6751    0.7772   -3.1044 H         1 <0>         0.1120
     41 H5          0.4367   -1.5367   -0.5642 H         1 <0>         0.3477
     42 H6          1.8955   -1.2639    1.3377 H         1 <0>         0.0998
     43 H7          0.6781    0.6610    0.7495 H         1 <0>         0.0976
     44 H8          5.5213   -0.1057    0.4219 H         1 <0>         0.1546
     45 H9          4.0274   -1.8067   -0.3714 H         1 <0>         0.1427
     46 H10         4.5531    4.8765    3.9362 H         1 <0>         0.1480
     47 H11         6.9693    4.4744    4.1130 H         1 <0>         0.1493
     48 H12         7.5889   -0.1598    3.1324 H         1 <0>         0.0474
     49 H13         5.9733   -0.7502    2.6748 H         1 <0>         0.0531
     50 H14         7.3874   -1.1623    1.6755 H         1 <0>         0.1023
     51 H15         8.5294    1.9478    3.7468 H         1 <0>         0.3870
     52 H16         0.0868    2.1992    1.2371 H         1 <0>         0.1563
     53 H17         2.1422    5.0663    2.5035 H         1 <0>         0.1579
     54 H18        -1.1755    7.3375    3.9295 H         1 <0>         0.1406
     55 H19        -3.9498    2.5388    2.2987 H         1 <0>         0.1447
     56 H20        -3.2520    2.9988    3.8739 H         1 <0>         0.0651
     57 H21        -3.3171    5.4183    4.4940 H         1 <0>         0.0793
     58 H22        -3.4521    6.5475    3.1241 H         1 <0>         0.1174
     59 H23         3.9640   -0.8221   -1.7887 H         1 <0>         0.0706
     60 H24         3.4923   -2.5381   -1.8223 H         1 <0>         0.0717
     61 H25         3.5009   -1.5878   -3.3274 H         1 <0>         0.0586
     62 H26         1.2743   -1.5025   -4.0615 H         1 <0>         0.0637
     63 H27         1.0595   -2.9090   -2.9921 H         1 <0>         0.0674
     64 H28        -0.0764   -1.5415   -2.9029 H         1 <0>         0.0556
@<TRIPOS>BOND
     1    1    2 1
     2    1   37 1
     3    1   38 1
     4    1   39 1
     5    2    7 1
     6    2    3 2
     7    3    4 1
     8    3   40 1
     9    4    5 1
    10    4   35 1
    11    4   36 1
    12    5    6 1
    13    5   41 1
    14    6   11 1
    15    6    7 1
    16    6   42 1
    17    7    8 1
    18    7   43 1
    19    8   22 1
    20    8    9 2
    21    9   10 1
    22    9   12 1
    23   10   11 2
    24   10   44 1
    25   11   45 1
    26   12   17 ar
    27   12   13 ar
    28   13   14 ar
    29   13   21 1
    30   14   15 ar
    31   14   46 1
    32   15   16 ar
    33   15   47 1
    34   16   17 ar
    35   16   20 1
    36   17   18 1
    37   18   19 1
    38   19   48 1
    39   19   49 1
    40   19   50 1
    41   20   51 1
    42   21   22 1
    43   22   23 2
    44   23   24 1
    45   23   52 1
    46   24   29 ar
    47   24   25 ar
    48   25   26 ar
    49   25   53 1
    50   26   27 ar
    51   26   34 1
    52   27   28 ar
    53   27   54 1
    54   28   33 1
    55   28   29 ar
    56   29   30 1
    57   30   31 1
    58   31   32 1
    59   31   55 1
    60   31   56 1
    61   32   33 1
    62   33   57 1
    63   33   58 1
    64   35   59 1
    65   35   60 1
    66   35   61 1
    67   36   62 1
    68   36   63 1
    69   36   64 1
@<TRIPOS>MOLECULE
CHEMBL232376__3
   65    70     0     0     0
SMALL
USER_CHARGES

@<TRIPOS>ATOM
      1 C1          1.2437    2.7613   -1.1297 C.3       1 <0>        -0.1378
      2 C2          1.2676    1.2561   -1.0600 C.2       1 <0>        -0.0771
      3 C3          1.3044    0.5822   -2.1701 C.2       1 <0>        -0.1818
      4 C4          1.3346   -0.9185   -2.2124 C.3       1 <0>         0.1027
      5 N1          0.8469   -1.4724   -0.9441 N.4       1 <0>        -0.4964
      6 C5          1.6036   -0.8781    0.1664 C.3       1 <0>         0.0774
      7 C6          1.2540    0.5980    0.2902 C.3       1 <0>        -0.0224
      8 C7          2.2151    1.3004    1.2093 C.2       1 <0>        -0.1006
      9 C8          3.5210    0.8988    1.2650 C.2       1 <0>         0.0004
     10 C9          3.9736   -0.2416    0.4605 C.2       1 <0>        -0.0647
     11 C10         3.0758   -1.0697   -0.0634 C.2       1 <0>        -0.2136
     12 C11         4.4445    1.6361    2.1471 C.ar      1 <0>        -0.1365
     13 C12         3.9399    2.6962    2.9154 C.ar      1 <0>         0.1370
     14 C13         4.7955    3.4009    3.7476 C.ar      1 <0>        -0.1232
     15 C14         6.1335    3.0599    3.8217 C.ar      1 <0>        -0.0740
     16 C15         6.6371    2.0113    3.0670 C.ar      1 <0>         0.0702
     17 C16         5.7953    1.2933    2.2258 C.ar      1 <0>         0.1255
     18 O1          6.2840    0.2631    1.4858 O.3       1 <0>        -0.3211
     19 C17         6.4085   -1.0023    2.1380 C.3       1 <0>         0.0261
     20 O2          7.9557    1.6856    3.1496 O.3       1 <0>        -0.4781
     21 O3          2.6295    3.0265    2.8472 O.3       1 <0>        -0.2110
     22 C18         1.7883    2.3738    2.0176 C.2       1 <0>         0.1061
     23 C19         0.4861    2.7648    1.9592 C.2       1 <0>        -0.1383
     24 C20         0.0593    3.9992    2.6303 C.ar      1 <0>        -0.0461
     25 C21         1.0046    4.9631    2.9971 C.ar      1 <0>        -0.1082
     26 C22         0.5948    6.1200    3.6297 C.ar      1 <0>         0.0778
     27 C23        -0.7479    6.3275    3.9034 C.ar      1 <0>        -0.1046
     28 C24        -1.6926    5.3800    3.5450 C.ar      1 <0>        -0.1720
     29 C25        -1.3010    4.2210    2.9021 C.ar      1 <0>         0.1352
     30 O4         -2.2200    3.2902    2.5302 O.3       1 <0>        -0.3286
     31 C26        -3.5135    3.3811    3.1341 C.3       1 <0>         0.2195
     32 O5         -3.9549    4.7423    3.0654 O.3       1 <0>        -0.3783
     33 C27        -3.1476    5.6255    3.8568 C.3       1 <0>         0.0981
     34 F1          1.5058    7.0528    3.9834 F         1 <0>        -0.1332
     35 C28         2.7703   -1.3898   -2.4524 C.3       1 <0>        -0.1836
     36 C29         0.4453   -1.4112   -3.3558 C.3       1 <0>        -0.1724
     37 H1          2.2652    3.1414   -1.1278 H         1 <0>         0.0811
     38 H2          0.7411    3.0747   -2.0448 H         1 <0>         0.0795
     39 H3          0.7074    3.1565   -0.2670 H         1 <0>         0.0848
     40 H4          1.3133    1.1253   -3.1036 H         1 <0>         0.1533
     41 H5         -0.1332   -1.2575   -0.8372 H         1 <0>         0.4313
     42 H6          1.3224   -1.3781    1.0932 H         1 <0>         0.1522
     43 H7          0.2534    0.6847    0.7137 H         1 <0>         0.1275
     44 H8          5.0287   -0.4076    0.3005 H         1 <0>         0.1738
     45 H9          3.4152   -1.8938   -0.6733 H         1 <0>         0.1632
     46 H10         4.4156    4.2195    4.3409 H         1 <0>         0.1532
     47 H11         6.7922    3.6153    4.4728 H         1 <0>         0.1555
     48 H12         6.8092   -1.7344    1.4369 H         1 <0>         0.1055
     49 H13         7.0827   -0.9075    2.9892 H         1 <0>         0.0545
     50 H14         5.4287   -1.3300    2.4853 H         1 <0>         0.0502
     51 H15         8.1571    1.0310    3.8322 H         1 <0>         0.3917
     52 H16        -0.2334    2.1671    1.4192 H         1 <0>         0.1536
     53 H17         2.0517    4.8026    2.7865 H         1 <0>         0.1558
     54 H18        -1.0599    7.2343    4.4000 H         1 <0>         0.1456
     55 H19        -4.2140    2.7417    2.5969 H         1 <0>         0.1454
     56 H20        -3.4536    3.0679    4.1765 H         1 <0>         0.0673
     57 H21        -3.3268    5.4506    4.9176 H         1 <0>         0.0833
     58 H22        -3.4040    6.6555    3.6091 H         1 <0>         0.1214
     59 H23         3.4614   -0.7327   -1.9246 H         1 <0>         0.1033
     60 H24         2.8846   -2.4091   -2.0834 H         1 <0>         0.0835
     61 H25         2.9876   -1.3635   -3.5202 H         1 <0>         0.1020
     62 H26         0.8142   -1.0124   -4.3008 H         1 <0>         0.1081
     63 H27         0.4657   -2.5005   -3.3885 H         1 <0>         0.0843
     64 H28        -0.5776   -1.0716   -3.1927 H         1 <0>         0.0833
     65 H29         0.9753   -2.4732   -0.9419 H         1 <0>         0.4333
@<TRIPOS>BOND
     1    1    2 1
     2    1   37 1
     3    1   38 1
     4    1   39 1
     5    2    7 1
     6    2    3 2
     7    3    4 1
     8    3   40 1
     9    4    5 1
    10    4   35 1
    11    4   36 1
    12    5    6 1
    13    5   41 1
    14    5   65 1
    15    6   11 1
    16    6    7 1
    17    6   42 1
    18    7    8 1
    19    7   43 1
    20    8   22 1
    21    8    9 2
    22    9   10 1
    23    9   12 1
    24   10   11 2
    25   10   44 1
    26   11   45 1
    27   12   17 ar
    28   12   13 ar
    29   13   14 ar
    30   13   21 1
    31   14   15 ar
    32   14   46 1
    33   15   16 ar
    34   15   47 1
    35   16   17 ar
    36   16   20 1
    37   17   18 1
    38   18   19 1
    39   19   48 1
    40   19   49 1
    41   19   50 1
    42   20   51 1
    43   21   22 1
    44   22   23 2
    45   23   24 1
    46   23   52 1
    47   24   29 ar
    48   24   25 ar
    49   25   26 ar
    50   25   53 1
    51   26   27 ar
    52   26   34 1
    53   27   28 ar
    54   27   54 1
    55   28   33 1
    56   28   29 ar
    57   29   30 1
    58   30   31 1
    59   31   32 1
    60   31   55 1
    61   31   56 1
    62   32   33 1
    63   33   57 1
    64   33   58 1
    65   35   59 1
    66   35   60 1
    67   35   61 1
    68   36   62 1
    69   36   63 1
    70   36   64 1
@<TRIPOS>MOLECULE
CHEMBL232376__4
   64    69     0     0     0
SMALL
USER_CHARGES

@<TRIPOS>ATOM
      1 C1         -0.4636    1.7422    0.3948 C.3       1 <0>        -0.1249
      2 C2         -0.2510    0.2620    0.2077 C.2       1 <0>        -0.0995
      3 C3         -0.4608   -0.2496   -0.9670 C.2       1 <0>        -0.1434
      4 C4         -0.2859   -1.7110   -1.2661 C.3       1 <0>         0.1418
      5 N1          0.5502   -2.3404   -0.2363 N.3       1 <0>        -0.6637
      6 C5          0.0288   -2.0390    1.1050 C.3       1 <0>         0.1176
      7 C6          0.1995   -0.5508    1.3870 C.3       1 <0>         0.0128
      8 C7         -0.5765   -0.1501    2.6111 C.2       1 <0>        -0.1090
      9 C8         -1.7534   -0.7797    2.9079 C.2       1 <0>         0.0028
     10 C9         -2.2366   -1.8725    2.0566 C.2       1 <0>        -0.1398
     11 C10        -1.4119   -2.4559    1.1919 C.2       1 <0>        -0.1610
     12 C11        -2.5083   -0.3334    4.0934 C.ar      1 <0>        -0.1254
     13 C12        -1.9727    0.6934    4.8857 C.ar      1 <0>         0.1291
     14 C13        -2.6711    1.1261    6.0021 C.ar      1 <0>        -0.1263
     15 C14        -3.8834    0.5490    6.3328 C.ar      1 <0>        -0.0878
     16 C15        -4.4158   -0.4684    5.5556 C.ar      1 <0>         0.0681
     17 C16        -3.7310   -0.9154    4.4317 C.ar      1 <0>         0.1233
     18 O1         -4.2487   -1.9127    3.6670 O.3       1 <0>        -0.3235
     19 C17        -3.8881   -3.2510    4.0151 C.3       1 <0>         0.0324
     20 O2         -5.6087   -1.0292    5.8932 O.3       1 <0>        -0.4863
     21 O3         -0.7841    1.2549    4.5649 O.3       1 <0>        -0.2172
     22 C18        -0.1073    0.8719    3.4616 C.2       1 <0>         0.1189
     23 C19         1.0660    1.4920    3.1607 C.2       1 <0>        -0.1572
     24 C20         1.6255    2.4910    4.0802 C.ar      1 <0>        -0.0289
     25 C21         1.1933    2.5428    5.4098 C.ar      1 <0>        -0.1160
     26 C22         1.7232    3.4867    6.2671 C.ar      1 <0>         0.0749
     27 C23         2.6786    4.3826    5.8140 C.ar      1 <0>        -0.1160
     28 C24         3.1137    4.3408    4.4997 C.ar      1 <0>        -0.1752
     29 C25         2.6014    3.3960    3.6308 C.ar      1 <0>         0.1309
     30 O4          3.0318    3.3335    2.3423 O.3       1 <0>        -0.3211
     31 C26         3.7356    4.4728    1.8395 C.3       1 <0>         0.2201
     32 O5          4.7259    4.8584    2.8004 O.3       1 <0>        -0.3816
     33 C27         4.1512    5.3285    4.0278 C.3       1 <0>         0.1013
     34 F1          1.3084    3.5374    7.5518 F         1 <0>        -0.1380
     35 C28        -1.6562   -2.3910   -1.2924 C.3       1 <0>        -0.1852
     36 C29         0.3840   -1.8726   -2.6321 C.3       1 <0>        -0.1346
     37 H1          0.4655    2.2721    0.1847 H         1 <0>         0.0713
     38 H2         -1.2406    2.0867   -0.2876 H         1 <0>         0.0609
     39 H3         -0.7693    1.9383    1.4224 H         1 <0>         0.0644
     40 H4         -0.7759    0.4056   -1.7656 H         1 <0>         0.1134
     41 H5          0.6163   -3.3364   -0.3832 H         1 <0>         0.3489
     42 H6          0.6047   -2.5976    1.8429 H         1 <0>         0.0974
     43 H7          1.2535   -0.3444    1.5728 H         1 <0>         0.1050
     44 H8         -3.2628   -2.2017    2.1270 H         1 <0>         0.1507
     45 H9         -1.7764   -3.2430    0.5485 H         1 <0>         0.1367
     46 H10        -2.2666    1.9170    6.6164 H         1 <0>         0.1479
     47 H11        -4.4201    0.8935    7.2043 H         1 <0>         0.1492
     48 H12        -2.8059   -3.3641    3.9507 H         1 <0>         0.0519
     49 H13        -4.2156   -3.4623    5.0331 H         1 <0>         0.0551
     50 H14        -4.3678   -3.9472    3.3272 H         1 <0>         0.0992
     51 H15        -6.3748   -0.5929    5.4961 H         1 <0>         0.3939
     52 H16         1.5858    1.2494    2.2456 H         1 <0>         0.1587
     53 H17         0.4475    1.8468    5.7645 H         1 <0>         0.1583
     54 H18         3.0866    5.1189    6.4906 H         1 <0>         0.1404
     55 H19         4.2201    4.2172    0.8972 H         1 <0>         0.1449
     56 H20         3.0372    5.2950    1.6837 H         1 <0>         0.0649
     57 H21         3.6846    6.3019    3.8768 H         1 <0>         0.0790
     58 H22         4.9387    5.4144    4.7765 H         1 <0>         0.1172
     59 H23        -2.1095   -2.2570   -2.2746 H         1 <0>         0.0613
     60 H24        -1.5377   -3.4553   -1.0891 H         1 <0>         0.0596
     61 H25        -2.2977   -1.9451   -0.5323 H         1 <0>         0.0740
     62 H26         1.3584   -1.3843   -2.6190 H         1 <0>         0.0654
     63 H27         0.5118   -2.9328   -2.8509 H         1 <0>         0.0568
     64 H28        -0.2410   -1.4160   -3.3996 H         1 <0>         0.0613
@<TRIPOS>BOND
     1    1    2 1
     2    1   37 1
     3    1   38 1
     4    1   39 1
     5    2    7 1
     6    2    3 2
     7    3    4 1
     8    3   40 1
     9    4    5 1
    10    4   35 1
    11    4   36 1
    12    5    6 1
    13    5   41 1
    14    6   11 1
    15    6    7 1
    16    6   42 1
    17    7    8 1
    18    7   43 1
    19    8   22 1
    20    8    9 2
    21    9   10 1
    22    9   12 1
    23   10   11 2
    24   10   44 1
    25   11   45 1
    26   12   17 ar
    27   12   13 ar
    28   13   14 ar
    29   13   21 1
    30   14   15 ar
    31   14   46 1
    32   15   16 ar
    33   15   47 1
    34   16   17 ar
    35   16   20 1
    36   17   18 1
    37   18   19 1
    38   19   48 1
    39   19   49 1
    40   19   50 1
    41   20   51 1
    42   21   22 1
    43   22   23 2
    44   23   24 1
    45   23   52 1
    46   24   29 ar
    47   24   25 ar
    48   25   26 ar
    49   25   53 1
    50   26   27 ar
    51   26   34 1
    52   27   28 ar
    53   27   54 1
    54   28   33 1
    55   28   29 ar
    56   29   30 1
    57   30   31 1
    58   31   32 1
    59   31   55 1
    60   31   56 1
    61   32   33 1
    62   33   57 1
    63   33   58 1
    64   35   59 1
    65   35   60 1
    66   35   61 1
    67   36   62 1
    68   36   63 1
    69   36   64 1
@<TRIPOS>MOLECULE
CHEMBL232376__5
   65    70     0     0     0
SMALL
USER_CHARGES

@<TRIPOS>ATOM
      1 C1         -0.2389    1.5456    0.3181 C.3       1 <0>        -0.1351
      2 C2         -0.0509    0.0582    0.1656 C.2       1 <0>        -0.0786
      3 C3         -0.2913   -0.4842   -0.9901 C.2       1 <0>        -0.1806
      4 C4         -0.1392   -1.9557   -1.2478 C.3       1 <0>         0.1027
      5 N1          0.7320   -2.5616   -0.2342 N.4       1 <0>        -0.4971
      6 C5          0.2246   -2.2257    1.1034 C.3       1 <0>         0.0763
      7 C6          0.4125   -0.7342    1.3547 C.3       1 <0>        -0.0231
      8 C7         -0.3452   -0.3041    2.5806 C.2       1 <0>        -0.1012
      9 C8         -1.5244   -0.9170    2.9023 C.2       1 <0>         0.0019
     10 C9         -2.0281   -2.0198    2.0761 C.2       1 <0>        -0.0678
     11 C10        -1.2190   -2.6264    1.2134 C.2       1 <0>        -0.2131
     12 C11        -2.2606   -0.4427    4.0887 C.ar      1 <0>        -0.1397
     13 C12        -1.7067    0.5939    4.8552 C.ar      1 <0>         0.1356
     14 C13        -2.3875    1.0530    5.9720 C.ar      1 <0>        -0.1225
     15 C14        -3.6003    0.4923    6.3281 C.ar      1 <0>        -0.0756
     16 C15        -4.1510   -0.5342    5.5761 C.ar      1 <0>         0.0761
     17 C16        -3.4838   -1.0080    4.4527 C.ar      1 <0>         0.1248
     18 O1         -4.0191   -2.0150    3.7132 O.3       1 <0>        -0.3258
     19 C17        -3.6652   -3.3496    4.0817 C.3       1 <0>         0.0278
     20 O2         -5.3447   -1.0778    5.9381 O.3       1 <0>        -0.4839
     21 O3         -0.5175    1.1392    4.5097 O.3       1 <0>        -0.2114
     22 C18         0.1437    0.7284    3.4069 C.2       1 <0>         0.1030
     23 C19         1.3201    1.3304    3.0821 C.2       1 <0>        -0.1360
     24 C20         1.9317    2.2938    4.0064 C.ar      1 <0>        -0.0465
     25 C21         1.5444    2.3219    5.3505 C.ar      1 <0>        -0.1087
     26 C22         2.1230    3.2325    6.2122 C.ar      1 <0>         0.0774
     27 C23         3.0832    4.1183    5.7494 C.ar      1 <0>        -0.1048
     28 C24         3.4742    4.0997    4.4208 C.ar      1 <0>        -0.1722
     29 C25         2.9127    3.1881    3.5468 C.ar      1 <0>         0.1354
     30 O4          3.2993    3.1483    2.2437 O.3       1 <0>        -0.3280
     31 C26         4.0120    4.2841    1.7455 C.3       1 <0>         0.2194
     32 O5          5.0415    4.6241    2.6821 O.3       1 <0>        -0.3785
     33 C27         4.5178    5.0760    3.9388 C.3       1 <0>         0.0982
     34 F1          1.7516    3.2604    7.5108 F         1 <0>        -0.1334
     35 C28        -1.5148   -2.6237   -1.1983 C.3       1 <0>        -0.1811
     36 C29         0.4733   -2.1668   -2.6339 C.3       1 <0>        -0.1726
     37 H1          0.6930    2.0564    0.0755 H         1 <0>         0.0871
     38 H2         -1.0250    1.8836   -0.3571 H         1 <0>         0.0779
     39 H3         -0.5206    1.7727    1.3463 H         1 <0>         0.0782
     40 H4         -0.6152    0.1511   -1.8012 H         1 <0>         0.1532
     41 H5          0.7379   -3.5639   -0.3505 H         1 <0>         0.4333
     42 H6          0.8015   -2.7740    1.8481 H         1 <0>         0.1520
     43 H7          1.4707   -0.5326    1.5209 H         1 <0>         0.1287
     44 H8         -3.0566   -2.3373    2.1640 H         1 <0>         0.1732
     45 H9         -1.5986   -3.4212    0.5884 H         1 <0>         0.1654
     46 H10        -1.9689    1.8515    6.5665 H         1 <0>         0.1529
     47 H11        -4.1230    0.8570    7.2000 H         1 <0>         0.1556
     48 H12        -4.1591   -4.0543    3.4129 H         1 <0>         0.1039
     49 H13        -2.5849   -3.4730    4.0061 H         1 <0>         0.0481
     50 H14        -3.9817   -3.5392    5.1074 H         1 <0>         0.0621
     51 H15        -6.1117   -0.6418    5.5421 H         1 <0>         0.3993
     52 H16         1.8041    1.0995    2.1446 H         1 <0>         0.1537
     53 H17         0.7949    1.6338    5.7128 H         1 <0>         0.1570
     54 H18         3.5296    4.8285    6.4297 H         1 <0>         0.1455
     55 H19         4.4596    4.0414    0.7817 H         1 <0>         0.1453
     56 H20         3.3276    5.1250    1.6328 H         1 <0>         0.0674
     57 H21         4.0687    6.0628    3.8268 H         1 <0>         0.0833
     58 H22         5.3311    5.1260    4.6628 H         1 <0>         0.1212
     59 H23        -1.9882   -2.5536   -2.1776 H         1 <0>         0.1016
     60 H24        -1.3998   -3.6724   -0.9245 H         1 <0>         0.0839
     61 H25        -2.1364   -2.1208   -0.4574 H         1 <0>         0.1018
     62 H26         1.4508   -1.6863   -2.6762 H         1 <0>         0.0832
     63 H27         0.5847   -3.2344   -2.8232 H         1 <0>         0.0845
     64 H28        -0.1793   -1.7299   -3.3898 H         1 <0>         0.1081
     65 H29         1.6697   -2.2040   -0.3385 H         1 <0>         0.4312
@<TRIPOS>BOND
     1    1    2 1
     2    1   37 1
     3    1   38 1
     4    1   39 1
     5    2    7 1
     6    2    3 2
     7    3    4 1
     8    3   40 1
     9    4    5 1
    10    4   35 1
    11    4   36 1
    12    5    6 1
    13    5   41 1
    14    5   65 1
    15    6   11 1
    16    6    7 1
    17    6   42 1
    18    7    8 1
    19    7   43 1
    20    8   22 1
    21    8    9 2
    22    9   10 1
    23    9   12 1
    24   10   11 2
    25   10   44 1
    26   11   45 1
    27   12   17 ar
    28   12   13 ar
    29   13   14 ar
    30   13   21 1
    31   14   15 ar
    32   14   46 1
    33   15   16 ar
    34   15   47 1
    35   16   17 ar
    36   16   20 1
    37   17   18 1
    38   18   19 1
    39   19   48 1
    40   19   49 1
    41   19   50 1
    42   20   51 1
    43   21   22 1
    44   22   23 2
    45   23   24 1
    46   23   52 1
    47   24   29 ar
    48   24   25 ar
    49   25   26 ar
    50   25   53 1
    51   26   27 ar
    52   26   34 1
    53   27   28 ar
    54   27   54 1
    55   28   33 1
    56   28   29 ar
    57   29   30 1
    58   30   31 1
    59   31   32 1
    60   31   55 1
    61   31   56 1
    62   32   33 1
    63   33   57 1
    64   33   58 1
    65   35   59 1
    66   35   60 1
    67   35   61 1
    68   36   62 1
    69   36   63 1
    70   36   64 1
@<TRIPOS>MOLECULE
CHEMBL232376__6
   64    69     0     0     0
SMALL
USER_CHARGES

@<TRIPOS>ATOM
      1 C1          0.1154    1.5292   -0.2622 C.3       1 <0>        -0.1220
      2 C2          0.0795    0.0190   -0.1823 C.2       1 <0>        -0.1014
      3 C3          0.1263   -0.6397   -1.3115 C.2       1 <0>        -0.1792
      4 C4          0.0107   -2.1319   -1.4021 C.3       1 <0>         0.1426
      5 N1         -0.6320   -2.6620   -0.1894 N.3       1 <0>        -0.6599
      6 C5          0.0509   -2.1952    1.0048 C.3       1 <0>         0.1203
      7 C6         -0.0324   -0.6651    1.1247 C.3       1 <0>        -0.0328
      8 C7          0.8892   -0.2901    2.2334 C.2       1 <0>        -0.0977
      9 C8          0.7137   -1.0130    3.4118 C.2       1 <0>        -0.0143
     10 C9         -0.2476   -2.1222    3.4236 C.2       1 <0>        -0.1201
     11 C10        -0.5702   -2.7349    2.2735 C.2       1 <0>        -0.1213
     12 C11         1.4952   -0.6063    4.5903 C.ar      1 <0>        -0.1195
     13 C12         2.2404    0.5861    4.5214 C.ar      1 <0>         0.1265
     14 C13         2.9637    1.0195    5.6174 C.ar      1 <0>        -0.1278
     15 C14         2.9726    0.2741    6.7822 C.ar      1 <0>        -0.0897
     16 C15         2.2605   -0.9118    6.8580 C.ar      1 <0>         0.0642
     17 C16         1.5247   -1.3594    5.7643 C.ar      1 <0>         0.1244
     18 O1          0.8594   -2.5408    5.8607 O.3       1 <0>        -0.3258
     19 C17         1.5740   -3.7201    5.4859 C.3       1 <0>         0.0398
     20 O2          2.2783   -1.6448    8.0051 O.3       1 <0>        -0.4868
     21 O3          2.2636    1.2968    3.3623 O.3       1 <0>        -0.2328
     22 C18         1.9496    0.6164    2.2241 C.2       1 <0>         0.1031
     23 C19         2.7585    0.7795    1.1484 C.2       1 <0>        -0.1133
     24 C20         3.7515    1.8613    1.1337 C.ar      1 <0>        -0.0406
     25 C21         3.6328    2.9367    2.0208 C.ar      1 <0>        -0.1024
     26 C22         4.5699    3.9506    1.9987 C.ar      1 <0>         0.0725
     27 C23         5.6244    3.9068    1.1005 C.ar      1 <0>        -0.1095
     28 C24         5.7517    2.8473    0.2176 C.ar      1 <0>        -0.1774
     29 C25         4.8285    1.8188    0.2329 C.ar      1 <0>         0.1360
     30 O4          4.9510    0.7647   -0.6174 O.3       1 <0>        -0.3210
     31 C26         5.8276    0.9336   -1.7351 C.3       1 <0>         0.2196
     32 O5          7.0610    1.4927   -1.2675 O.3       1 <0>        -0.3809
     33 C27         6.9051    2.8230   -0.7539 C.3       1 <0>         0.1011
     34 F1          4.4581    4.9893    2.8554 F         1 <0>        -0.1365
     35 C28         1.3926   -2.7508   -1.5867 C.3       1 <0>        -0.1330
     36 C29        -0.8584   -2.4860   -2.6136 C.3       1 <0>        -0.1399
     37 H1          1.1485    1.8717   -0.2042 H         1 <0>         0.0734
     38 H2         -0.3225    1.8536   -1.2062 H         1 <0>         0.0642
     39 H3         -0.4541    1.9504    0.5663 H         1 <0>         0.0614
     40 H4          0.2549   -0.0810   -2.2231 H         1 <0>         0.1130
     41 H5         -1.6148   -2.4331   -0.1723 H         1 <0>         0.3477
     42 H6          1.0956   -2.4911    0.9984 H         1 <0>         0.0956
     43 H7         -1.0609   -0.4543    1.4990 H         1 <0>         0.0884
     44 H8         -0.7187   -2.4382    4.3424 H         1 <0>         0.1396
     45 H9         -1.2403   -3.5731    2.2454 H         1 <0>         0.1380
     46 H10         3.5233    1.9422    5.5669 H         1 <0>         0.1457
     47 H11         3.5381    0.6183    7.6345 H         1 <0>         0.1472
     48 H12         1.8828   -3.6421    4.4435 H         1 <0>         0.0469
     49 H13         2.4550   -3.8277    6.1187 H         1 <0>         0.0524
     50 H14         0.9294   -4.5903    5.6097 H         1 <0>         0.0983
     51 H15         1.5776   -1.4139    8.6302 H         1 <0>         0.3933
     52 H16         2.6727    0.1137    0.3024 H         1 <0>         0.1507
     53 H17         2.8108    2.9738    2.7203 H         1 <0>         0.1587
     54 H18         6.3519    4.7049    1.0886 H         1 <0>         0.1419
     55 H19         6.0174   -0.0335   -2.2007 H         1 <0>         0.1451
     56 H20         5.3713    1.6083   -2.4594 H         1 <0>         0.0658
     57 H21         6.7095    3.5207   -1.5682 H         1 <0>         0.0800
     58 H22         7.8209    3.1123   -0.2385 H         1 <0>         0.1177
     59 H23         2.0238   -2.4906   -0.7370 H         1 <0>         0.0534
     60 H24         1.2995   -3.8349   -1.6516 H         1 <0>         0.0669
     61 H25         1.8421   -2.3692   -2.5035 H         1 <0>         0.0623
     62 H26        -0.3952   -2.0953   -3.5196 H         1 <0>         0.0643
     63 H27        -0.9503   -3.5693   -2.6906 H         1 <0>         0.0678
     64 H28        -1.8478   -2.0451   -2.4922 H         1 <0>         0.0555
@<TRIPOS>BOND
     1    1    2 1
     2    1   37 1
     3    1   38 1
     4    1   39 1
     5    2    7 1
     6    2    3 2
     7    3    4 1
     8    3   40 1
     9    4    5 1
    10    4   35 1
    11    4   36 1
    12    5    6 1
    13    5   41 1
    14    6   11 1
    15    6    7 1
    16    6   42 1
    17    7    8 1
    18    7   43 1
    19    8   22 1
    20    8    9 2
    21    9   10 1
    22    9   12 1
    23   10   11 2
    24   10   44 1
    25   11   45 1
    26   12   17 ar
    27   12   13 ar
    28   13   14 ar
    29   13   21 1
    30   14   15 ar
    31   14   46 1
    32   15   16 ar
    33   15   47 1
    34   16   17 ar
    35   16   20 1
    36   17   18 1
    37   18   19 1
    38   19   48 1
    39   19   49 1
    40   19   50 1
    41   20   51 1
    42   21   22 1
    43   22   23 2
    44   23   24 1
    45   23   52 1
    46   24   29 ar
    47   24   25 ar
    48   25   26 ar
    49   25   53 1
    50   26   27 ar
    51   26   34 1
    52   27   28 ar
    53   27   54 1
    54   28   33 1
    55   28   29 ar
    56   29   30 1
    57   30   31 1
    58   31   32 1
    59   31   55 1
    60   31   56 1
    61   32   33 1
    62   33   57 1
    63   33   58 1
    64   35   59 1
    65   35   60 1
    66   35   61 1
    67   36   62 1
    68   36   63 1
    69   36   64 1
@<TRIPOS>MOLECULE
CHEMBL232376__7
   65    70     0     0     0
SMALL
USER_CHARGES

@<TRIPOS>ATOM
      1 C1          0.1160    1.5308   -0.2623 C.3       1 <0>        -0.1324
      2 C2          0.0795    0.0208   -0.1834 C.2       1 <0>        -0.0714
      3 C3          0.1267   -0.6403   -1.3114 C.2       1 <0>        -0.1887
      4 C4          0.0116   -2.1318   -1.3998 C.3       1 <0>         0.1010
      5 N1         -0.6439   -2.6623   -0.1955 N.4       1 <0>        -0.4876
      6 C5          0.0520   -2.1959    0.9911 C.3       1 <0>         0.0519
      7 C6         -0.0338   -0.6672    1.1233 C.3       1 <0>        -0.0089
      8 C7          0.8961   -0.2987    2.2278 C.2       1 <0>        -0.0963
      9 C8          0.7431   -1.0382    3.3989 C.2       1 <0>        -0.0132
     10 C9         -0.2116   -2.1533    3.4146 C.2       1 <0>        -0.0383
     11 C10        -0.5493   -2.7524    2.2626 C.2       1 <0>        -0.2092
     12 C11         1.5406   -0.6435    4.5711 C.ar      1 <0>        -0.1360
     13 C12         2.2651    0.5620    4.5140 C.ar      1 <0>         0.1332
     14 C13         3.0021    0.9850    5.6041 C.ar      1 <0>        -0.1242
     15 C14         3.0434    0.2172    6.7539 C.ar      1 <0>        -0.0766
     16 C15         2.3528   -0.9821    6.8171 C.ar      1 <0>         0.0706
     17 C16         1.6049   -1.4205    5.7279 C.ar      1 <0>         0.1271
     18 O1          0.9637   -2.6158    5.8104 O.3       1 <0>        -0.3282
     19 C17         1.6933   -3.7732    5.3981 C.3       1 <0>         0.0371
     20 O2          2.4048   -1.7379    7.9483 O.3       1 <0>        -0.4850
     21 O3          2.2536    1.2938    3.3675 O.3       1 <0>        -0.2267
     22 C18         1.9465    0.6194    2.2228 C.2       1 <0>         0.0805
     23 C19         2.7546    0.7985    1.1490 C.2       1 <0>        -0.0859
     24 C20         3.7352    1.8916    1.1421 C.ar      1 <0>        -0.0603
     25 C21         3.6038    2.9597    2.0362 C.ar      1 <0>        -0.0957
     26 C22         4.5292    3.9843    2.0215 C.ar      1 <0>         0.0746
     27 C23         5.5847    3.9585    1.1237 C.ar      1 <0>        -0.0977
     28 C24         5.7246    2.9063    0.2339 C.ar      1 <0>        -0.1750
     29 C25         4.8132    1.8674    0.2418 C.ar      1 <0>         0.1418
     30 O4          4.9481    0.8204   -0.6154 O.3       1 <0>        -0.3268
     31 C26         5.8234    1.0067   -1.7313 C.3       1 <0>         0.2191
     32 O5          7.0501    1.5766   -1.2593 O.3       1 <0>        -0.3773
     33 C27         6.8787    2.9016   -0.7370 C.3       1 <0>         0.0981
     34 F1          4.4051    5.0159    2.8850 F         1 <0>        -0.1318
     35 C28         1.3945   -2.7506   -1.5752 C.3       1 <0>        -0.1712
     36 C29        -0.8465   -2.4853   -2.6200 C.3       1 <0>        -0.1732
     37 H1          1.1493    1.8728   -0.2033 H         1 <0>         0.0893
     38 H2         -0.3210    1.8560   -1.2064 H         1 <0>         0.0806
     39 H3         -0.4539    1.9517    0.5660 H         1 <0>         0.0765
     40 H4          0.2527   -0.0806   -2.2234 H         1 <0>         0.1543
     41 H5         -1.6071   -2.3494   -0.1765 H         1 <0>         0.4301
     42 H6          1.0977   -2.4880    0.9726 H         1 <0>         0.1487
     43 H7         -1.0605   -0.4575    1.5018 H         1 <0>         0.1201
     44 H8         -0.6627   -2.4856    4.3379 H         1 <0>         0.1606
     45 H9         -1.2192   -3.5909    2.2331 H         1 <0>         0.1566
     46 H10         3.5484    1.9161    5.5614 H         1 <0>         0.1510
     47 H11         3.6162    0.5546    7.6038 H         1 <0>         0.1536
     48 H12         1.0672   -4.6579    5.5143 H         1 <0>         0.1015
     49 H13         1.9820   -3.6673    4.3523 H         1 <0>         0.0423
     50 H14         2.5872   -3.8774    6.0130 H         1 <0>         0.0589
     51 H15         1.7121   -1.5322    8.5910 H         1 <0>         0.3987
     52 H16         2.6771    0.1373    0.2986 H         1 <0>         0.1481
     53 H17         2.7810    2.9828    2.7354 H         1 <0>         0.1599
     54 H18         6.3031    4.7648    1.1176 H         1 <0>         0.1469
     55 H19         6.0245    0.0449   -2.2033 H         1 <0>         0.1454
     56 H20         5.3599    1.6809   -2.4515 H         1 <0>         0.0676
     57 H21         6.6757    3.6024   -1.5468 H         1 <0>         0.0840
     58 H22         7.7909    3.1979   -0.2190 H         1 <0>         0.1218
     59 H23         2.0206   -2.4886   -0.7222 H         1 <0>         0.0794
     60 H24         1.3020   -3.8349   -1.6386 H         1 <0>         0.0856
     61 H25         1.8493   -2.3707   -2.4900 H         1 <0>         0.1103
     62 H26        -0.3739   -2.0957   -3.5217 H         1 <0>         0.1093
     63 H27        -0.9392   -3.5685   -2.6975 H         1 <0>         0.0851
     64 H28        -1.8364   -2.0429   -2.5085 H         1 <0>         0.0838
     65 H29        -0.6346   -3.6740   -0.2282 H         1 <0>         0.4326
@<TRIPOS>BOND
     1    1    2 1
     2    1   37 1
     3    1   38 1
     4    1   39 1
     5    2    7 1
     6    2    3 2
     7    3    4 1
     8    3   40 1
     9    4    5 1
    10    4   35 1
    11    4   36 1
    12    5    6 1
    13    5   41 1
    14    5   65 1
    15    6   11 1
    16    6    7 1
    17    6   42 1
    18    7    8 1
    19    7   43 1
    20    8   22 1
    21    8    9 2
    22    9   10 1
    23    9   12 1
    24   10   11 2
    25   10   44 1
    26   11   45 1
    27   12   17 ar
    28   12   13 ar
    29   13   14 ar
    30   13   21 1
    31   14   15 ar
    32   14   46 1
    33   15   16 ar
    34   15   47 1
    35   16   17 ar
    36   16   20 1
    37   17   18 1
    38   18   19 1
    39   19   48 1
    40   19   49 1
    41   19   50 1
    42   20   51 1
    43   21   22 1
    44   22   23 2
    45   23   24 1
    46   23   52 1
    47   24   29 ar
    48   24   25 ar
    49   25   26 ar
    50   25   53 1
    51   26   27 ar
    52   26   34 1
    53   27   28 ar
    54   27   54 1
    55   28   33 1
    56   28   29 ar
    57   29   30 1
    58   30   31 1
    59   31   32 1
    60   31   55 1
    61   31   56 1
    62   32   33 1
    63   33   57 1
    64   33   58 1
    65   35   59 1
    66   35   60 1
    67   35   61 1
    68   36   62 1
    69   36   63 1
    70   36   64 1
@<TRIPOS>MOLECULE
CHEMBL231772
   69    74     0     0     0
SMALL
USER_CHARGES

@<TRIPOS>ATOM
      1 C1         -0.0237    2.0321    0.9397 C.3       1 <0>        -0.1212
      2 C2          0.2745    0.5861    0.6111 C.2       1 <0>        -0.0913
      3 C3          0.6400    0.3149   -0.6155 C.2       1 <0>        -0.1478
      4 C4          1.0507   -1.0534   -1.0706 C.3       1 <0>         0.1440
      5 N1          1.4538   -1.8685    0.0859 N.3       1 <0>        -0.6662
      6 C5          0.4170   -1.8744    1.1033 C.3       1 <0>         0.1186
      7 C6          0.1778   -0.4593    1.6534 C.3       1 <0>         0.0096
      8 C7         -1.0487   -0.5504    2.4941 C.2       1 <0>        -0.1089
      9 C8         -1.0420   -1.5812    3.4315 C.2       1 <0>        -0.0051
     10 C9          0.0756   -2.5331    3.4262 C.2       1 <0>        -0.1210
     11 C10         0.7868   -2.7176    2.3025 C.2       1 <0>        -0.1194
     12 C11        -2.1546   -1.6438    4.3914 C.ar      1 <0>        -0.1211
     13 C12        -3.0769   -0.5802    4.4193 C.ar      1 <0>         0.1315
     14 C13        -4.1207   -0.5868    5.3264 C.ar      1 <0>        -0.1277
     15 C14        -4.2731   -1.6455    6.2026 C.ar      1 <0>        -0.0859
     16 C15        -3.3846   -2.7080    6.1737 C.ar      1 <0>         0.0584
     17 C16        -2.3277   -2.7160    5.2677 C.ar      1 <0>         0.1259
     18 O1         -1.4906   -3.7863    5.2469 O.3       1 <0>        -0.3201
     19 C17        -1.9038   -4.9183    4.4788 C.3       1 <0>         0.0368
     20 O2         -3.5435   -3.7510    7.0338 O.3       1 <0>        -0.4805
     21 O3         -2.9481    0.4441    3.5347 O.3       1 <0>        -0.2302
     22 C18        -2.2264    0.1923    2.4076 C.2       1 <0>         0.1090
     23 C19        -2.7471    0.5937    1.2213 C.2       1 <0>        -0.1324
     24 C20        -3.7472    1.6683    1.1844 C.ar      1 <0>        -0.0294
     25 C21        -4.3905    1.9900   -0.0175 C.ar      1 <0>        -0.1079
     26 C22        -5.3289    2.9994   -0.0465 C.ar      1 <0>        -0.1050
     27 C23        -5.6379    3.6971    1.1077 C.ar      1 <0>        -0.1238
     28 C24        -5.0061    3.3867    2.3054 C.ar      1 <0>         0.0832
     29 C25        -4.0662    2.3720    2.3509 C.ar      1 <0>        -0.1185
     30 O4         -5.3153    4.0767    3.4346 O.3       1 <0>        -0.2590
     31 C26        -4.4410    5.0250    3.8622 C.ar      1 <0>         0.1226
     32 C27        -3.3347    5.3491    3.0900 C.ar      1 <0>        -0.1922
     33 C28        -2.4474    6.3135    3.5270 C.ar      1 <0>        -0.0822
     34 C29        -2.6609    6.9554    4.7330 C.ar      1 <0>        -0.1531
     35 C30        -3.7623    6.6340    5.5046 C.ar      1 <0>        -0.0829
     36 C31        -4.6562    5.6751    5.0691 C.ar      1 <0>        -0.1468
     37 C32         2.2473   -0.9180   -2.0183 C.3       1 <0>        -0.1352
     38 C33        -0.1004   -1.7190   -1.8180 C.3       1 <0>        -0.1750
     39 H1          0.8925    2.5284    1.2596 H         1 <0>         0.0667
     40 H2         -0.4177    2.5320    0.0549 H         1 <0>         0.0664
     41 H3         -0.7607    2.0780    1.7414 H         1 <0>         0.0647
     42 H4          0.6455    1.1173   -1.3338 H         1 <0>         0.1151
     43 H5          1.7048   -2.8030   -0.2001 H         1 <0>         0.3503
     44 H6         -0.5173   -2.2596    0.7060 H         1 <0>         0.0522
     45 H7          1.0188   -0.2728    2.3607 H         1 <0>         0.0955
     46 H8          0.3524   -3.0709    4.3204 H         1 <0>         0.1408
     47 H9          1.5867   -3.4316    2.2479 H         1 <0>         0.1354
     48 H10        -4.8205    0.2359    5.3530 H         1 <0>         0.1471
     49 H11        -5.0876   -1.6433    6.9109 H         1 <0>         0.1481
     50 H12        -1.1904   -5.7308    4.6166 H         1 <0>         0.1004
     51 H13        -2.8908   -5.2413    4.8098 H         1 <0>         0.0448
     52 H14        -1.9453   -4.6462    3.4241 H         1 <0>         0.0482
     53 H15        -4.1000   -4.4632    6.6899 H         1 <0>         0.3854
     54 H16        -2.4262    0.1230    0.3037 H         1 <0>         0.1437
     55 H17        -4.1514    1.4481   -0.9206 H         1 <0>         0.1285
     56 H18        -5.8244    3.2467   -0.9736 H         1 <0>         0.1320
     57 H19        -6.3737    4.4872    1.0772 H         1 <0>         0.1305
     58 H20        -3.5775    2.1272    3.2824 H         1 <0>         0.1491
     59 H21        -3.1671    4.8475    2.1483 H         1 <0>         0.1270
     60 H22        -1.5861    6.5661    2.9264 H         1 <0>         0.1251
     61 H23        -1.9658    7.7088    5.0730 H         1 <0>         0.1248
     62 H24        -3.9266    7.1366    6.4463 H         1 <0>         0.1309
     63 H25        -5.5190    5.4278    5.6698 H         1 <0>         0.1317
     64 H26         3.0739   -0.4389   -1.4937 H         1 <0>         0.0658
     65 H27         2.5563   -1.9069   -2.3570 H         1 <0>         0.0568
     66 H28         1.9628   -0.3119   -2.8784 H         1 <0>         0.0622
     67 H29        -0.3667   -1.1162   -2.6862 H         1 <0>         0.0675
     68 H30         0.2054   -2.7127   -2.1455 H         1 <0>         0.0590
     69 H31        -0.9624   -1.8038   -1.1563 H         1 <0>         0.0546
@<TRIPOS>BOND
     1    1    2 1
     2    1   39 1
     3    1   40 1
     4    1   41 1
     5    2    7 1
     6    2    3 2
     7    3    4 1
     8    3   42 1
     9    4    5 1
    10    4   37 1
    11    4   38 1
    12    5    6 1
    13    5   43 1
    14    6   11 1
    15    6    7 1
    16    6   44 1
    17    7    8 1
    18    7   45 1
    19    8   22 1
    20    8    9 2
    21    9   10 1
    22    9   12 1
    23   10   11 2
    24   10   46 1
    25   11   47 1
    26   12   17 ar
    27   12   13 ar
    28   13   14 ar
    29   13   21 1
    30   14   15 ar
    31   14   48 1
    32   15   16 ar
    33   15   49 1
    34   16   17 ar
    35   16   20 1
    36   17   18 1
    37   18   19 1
    38   19   50 1
    39   19   51 1
    40   19   52 1
    41   20   53 1
    42   21   22 1
    43   22   23 2
    44   23   24 1
    45   23   54 1
    46   24   29 ar
    47   24   25 ar
    48   25   26 ar
    49   25   55 1
    50   26   27 ar
    51   26   56 1
    52   27   28 ar
    53   27   57 1
    54   28   29 ar
    55   28   30 1
    56   29   58 1
    57   30   31 1
    58   31   36 ar
    59   31   32 ar
    60   32   33 ar
    61   32   59 1
    62   33   34 ar
    63   33   60 1
    64   34   35 ar
    65   34   61 1
    66   35   36 ar
    67   35   62 1
    68   36   63 1
    69   37   64 1
    70   37   65 1
    71   37   66 1
    72   38   67 1
    73   38   68 1
    74   38   69 1
@<TRIPOS>MOLECULE
CHEMBL231772__1
   70    75     0     0     0
SMALL
USER_CHARGES

@<TRIPOS>ATOM
      1 C1         -0.0090    2.0629    0.9351 C.3       1 <0>        -0.1323
      2 C2          0.2976    0.6179    0.6103 C.2       1 <0>        -0.0684
      3 C3          0.6677    0.3434   -0.6148 C.2       1 <0>        -0.1905
      4 C4          1.0923   -1.0227   -1.0619 C.3       1 <0>         0.1013
      5 N1          1.5034   -1.8328    0.0937 N.4       1 <0>        -0.4884
      6 C5          0.4484   -1.8412    1.0937 C.3       1 <0>         0.0536
      7 C6          0.2044   -0.4303    1.6516 C.3       1 <0>        -0.0093
      8 C7         -1.0230   -0.5232    2.4906 C.2       1 <0>        -0.1033
      9 C8         -1.0256   -1.5657    3.4153 C.2       1 <0>        -0.0056
     10 C9          0.0889   -2.5210    3.4091 C.2       1 <0>        -0.0388
     11 C10         0.8065   -2.6960    2.2895 C.2       1 <0>        -0.2080
     12 C11        -2.1462   -1.6390    4.3657 C.ar      1 <0>        -0.1379
     13 C12        -3.0510   -0.5620    4.4193 C.ar      1 <0>         0.1385
     14 C13        -4.0980   -0.5766    5.3222 C.ar      1 <0>        -0.1247
     15 C14        -4.2730   -1.6591    6.1646 C.ar      1 <0>        -0.0727
     16 C15        -3.4035   -2.7361    6.1072 C.ar      1 <0>         0.0648
     17 C16        -2.3419   -2.7348    5.2069 C.ar      1 <0>         0.1287
     18 O1         -1.5228   -3.8182    5.1553 O.3       1 <0>        -0.3235
     19 C17        -1.9509   -4.9174    4.3487 C.3       1 <0>         0.0341
     20 O2         -3.5871   -3.8033    6.9320 O.3       1 <0>        -0.4779
     21 O3         -2.9026    0.4794    3.5579 O.3       1 <0>        -0.2243
     22 C18        -2.1949    0.2310    2.4205 C.2       1 <0>         0.0837
     23 C19        -2.7257    0.6456    1.2436 C.2       1 <0>        -0.1039
     24 C20        -3.7106    1.7346    1.2255 C.ar      1 <0>        -0.0505
     25 C21        -4.3627    2.0739    0.0332 C.ar      1 <0>        -0.1018
     26 C22        -5.2867    3.0968    0.0219 C.ar      1 <0>        -0.1048
     27 C23        -5.5728    3.7907    1.1842 C.ar      1 <0>        -0.1111
     28 C24        -4.9321    3.4629    2.3725 C.ar      1 <0>         0.0859
     29 C25        -4.0063    2.4345    2.4004 C.ar      1 <0>        -0.1111
     30 O4         -5.2185    4.1492    3.5099 O.3       1 <0>        -0.2584
     31 C26        -4.3253    5.0808    3.9349 C.ar      1 <0>         0.1197
     32 C27        -3.2218    5.3929    3.1537 C.ar      1 <0>        -0.1948
     33 C28        -2.3152    6.3403    3.5881 C.ar      1 <0>        -0.0835
     34 C29        -2.5064    6.9772    4.8004 C.ar      1 <0>        -0.1500
     35 C30        -3.6049    6.6677    5.5810 C.ar      1 <0>        -0.0802
     36 C31        -4.5180    5.7259    5.1482 C.ar      1 <0>        -0.1437
     37 C32         2.2922   -0.8763   -2.0052 C.3       1 <0>        -0.1739
     38 C33        -0.0464   -1.7013   -1.8155 C.3       1 <0>        -0.1706
     39 H1          0.9037    2.5645    1.2568 H         1 <0>         0.0833
     40 H2         -0.4028    2.5590    0.0480 H         1 <0>         0.0827
     41 H3         -0.7487    2.1066    1.7344 H         1 <0>         0.0797
     42 H4          0.6653    1.1423   -1.3378 H         1 <0>         0.1545
     43 H5          1.6972   -2.7780   -0.2125 H         1 <0>         0.4325
     44 H6         -0.4807   -2.2243    0.6837 H         1 <0>         0.1487
     45 H7          1.0446   -0.2433    2.3590 H         1 <0>         0.1183
     46 H8          0.3566   -3.0672    4.3013 H         1 <0>         0.1610
     47 H9          1.6044   -3.4114    2.2333 H         1 <0>         0.1566
     48 H10        -4.7806    0.2586    5.3738 H         1 <0>         0.1521
     49 H11        -5.0904   -1.6639    6.8695 H         1 <0>         0.1544
     50 H12        -1.2523   -5.7461    4.4635 H         1 <0>         0.1040
     51 H13        -2.9451   -5.2339    4.6640 H         1 <0>         0.0509
     52 H14        -1.9818   -4.6105    3.3032 H         1 <0>         0.0453
     53 H15        -4.1537   -4.4938    6.5616 H         1 <0>         0.3902
     54 H16        -2.4241    0.1748    0.3196 H         1 <0>         0.1428
     55 H17        -4.1415    1.5350   -0.8762 H         1 <0>         0.1290
     56 H18        -5.7891    3.3577   -0.8979 H         1 <0>         0.1360
     57 H19        -6.2974    4.5914    1.1675 H         1 <0>         0.1354
     58 H20        -3.5108    2.1762    3.3246 H         1 <0>         0.1497
     59 H21        -3.0716    4.8952    2.2070 H         1 <0>         0.1246
     60 H22        -1.4562    6.5836    2.9804 H         1 <0>         0.1248
     61 H23        -1.7962    7.7173    5.1384 H         1 <0>         0.1268
     62 H24        -3.7518    7.1663    6.5277 H         1 <0>         0.1335
     63 H25        -5.3785    5.4880    5.7561 H         1 <0>         0.1336
     64 H26         3.1111   -0.3867   -1.4782 H         1 <0>         0.0838
     65 H27         2.6137   -1.8626   -2.3399 H         1 <0>         0.0851
     66 H28         2.0048   -0.2756   -2.8682 H         1 <0>         0.1095
     67 H29        -0.3113   -1.1043   -2.6882 H         1 <0>         0.1105
     68 H30         0.2708   -2.6934   -2.1367 H         1 <0>         0.0856
     69 H31        -0.9129   -1.7913   -1.1604 H         1 <0>         0.0782
     70 H32         2.3493   -1.4418    0.4900 H         1 <0>         0.4303
@<TRIPOS>BOND
     1    1    2 1
     2    1   39 1
     3    1   40 1
     4    1   41 1
     5    2    7 1
     6    2    3 2
     7    3    4 1
     8    3   42 1
     9    4    5 1
    10    4   37 1
    11    4   38 1
    12    5    6 1
    13    5   43 1
    14    5   70 1
    15    6   11 1
    16    6    7 1
    17    6   44 1
    18    7    8 1
    19    7   45 1
    20    8   22 1
    21    8    9 2
    22    9   10 1
    23    9   12 1
    24   10   11 2
    25   10   46 1
    26   11   47 1
    27   12   17 ar
    28   12   13 ar
    29   13   14 ar
    30   13   21 1
    31   14   15 ar
    32   14   48 1
    33   15   16 ar
    34   15   49 1
    35   16   17 ar
    36   16   20 1
    37   17   18 1
    38   18   19 1
    39   19   50 1
    40   19   51 1
    41   19   52 1
    42   20   53 1
    43   21   22 1
    44   22   23 2
    45   23   24 1
    46   23   54 1
    47   24   29 ar
    48   24   25 ar
    49   25   26 ar
    50   25   55 1
    51   26   27 ar
    52   26   56 1
    53   27   28 ar
    54   27   57 1
    55   28   29 ar
    56   28   30 1
    57   29   58 1
    58   30   31 1
    59   31   36 ar
    60   31   32 ar
    61   32   33 ar
    62   32   59 1
    63   33   34 ar
    64   33   60 1
    65   34   35 ar
    66   34   61 1
    67   35   36 ar
    68   35   62 1
    69   36   63 1
    70   37   64 1
    71   37   65 1
    72   37   66 1
    73   38   67 1
    74   38   68 1
    75   38   69 1
@<TRIPOS>MOLECULE
CHEMBL231772__2
   69    74     0     0     0
SMALL
USER_CHARGES

@<TRIPOS>ATOM
      1 C1         -0.4209    2.1251   -1.3016 C.3       1 <0>        -0.1283
      2 C2         -0.5267    0.6546   -0.9896 C.2       1 <0>        -0.1074
      3 C3         -0.5842   -0.1851   -1.9782 C.2       1 <0>        -0.1769
      4 C4         -0.6848   -1.6711   -1.7847 C.3       1 <0>         0.1389
      5 N1         -1.1520   -1.9729   -0.4259 N.3       1 <0>        -0.6584
      6 C5         -0.3279   -1.2712    0.5693 C.3       1 <0>         0.1172
      7 C6         -0.5545    0.2288    0.4499 C.3       1 <0>        -0.0283
      8 C7          0.4809    0.9911    1.2294 C.2       1 <0>        -0.1165
      9 C8          1.7513    0.4974    1.3390 C.2       1 <0>         0.0121
     10 C9          2.0918   -0.7944    0.7323 C.2       1 <0>        -0.1536
     11 C10         1.1188   -1.6193    0.3624 C.2       1 <0>        -0.1097
     12 C11         2.7510    1.2913    2.0766 C.ar      1 <0>        -0.1240
     13 C12         2.3505    2.5017    2.6629 C.ar      1 <0>         0.1244
     14 C13         3.2791    3.2610    3.3581 C.ar      1 <0>        -0.1244
     15 C14         4.5871    2.8281    3.4732 C.ar      1 <0>        -0.0852
     16 C15         4.9879    1.6318    2.8981 C.ar      1 <0>         0.0657
     17 C16         4.0719    0.8561    2.1976 C.ar      1 <0>         0.1247
     18 O1          4.4598   -0.3180    1.6332 O.3       1 <0>        -0.3178
     19 C17         4.4270   -1.4796    2.4649 C.3       1 <0>         0.0297
     20 O2          6.2782    1.2171    3.0197 O.3       1 <0>        -0.4803
     21 O3          1.0695    2.9228    2.5541 O.3       1 <0>        -0.2081
     22 C18         0.1606    2.2155    1.8514 C.2       1 <0>         0.1281
     23 C19        -1.1067    2.6994    1.7391 C.2       1 <0>        -0.1820
     24 C20        -1.4454    4.0099    2.3086 C.ar      1 <0>        -0.0220
     25 C21        -2.7126    4.5655    2.0910 C.ar      1 <0>        -0.1149
     26 C22        -3.0255    5.7958    2.6283 C.ar      1 <0>        -0.1024
     27 C23        -2.0921    6.4851    3.3819 C.ar      1 <0>        -0.1303
     28 C24        -0.8321    5.9437    3.6042 C.ar      1 <0>         0.0852
     29 C25        -0.5057    4.7069    3.0760 C.ar      1 <0>        -0.1387
     30 O4          0.0791    6.6270    4.3455 O.3       1 <0>        -0.2593
     31 C26         1.0897    7.2576    3.6916 C.ar      1 <0>         0.1224
     32 C27         1.1058    7.2909    2.3045 C.ar      1 <0>        -0.1912
     33 C28         2.1343    7.9325    1.6422 C.ar      1 <0>        -0.0818
     34 C29         3.1474    8.5409    2.3602 C.ar      1 <0>        -0.1527
     35 C30         3.1339    8.5088    3.7425 C.ar      1 <0>        -0.0830
     36 C31         2.1042    7.8742    4.4098 C.ar      1 <0>        -0.1481
     37 C32        -1.6719   -2.2493   -2.8007 C.3       1 <0>        -0.1392
     38 C33         0.6908   -2.3051   -2.0007 C.3       1 <0>        -0.1485
     39 H1          0.6296    2.4055   -1.3790 H         1 <0>         0.0636
     40 H2         -0.9229    2.3331   -2.2465 H         1 <0>         0.0628
     41 H3         -0.8928    2.7004   -0.5051 H         1 <0>         0.0739
     42 H4         -0.5588    0.2027   -2.9859 H         1 <0>         0.1121
     43 H5         -2.1273   -1.7377   -0.3183 H         1 <0>         0.3476
     44 H6         -0.6299   -1.5894    1.5671 H         1 <0>         0.1002
     45 H7         -1.5333    0.4663    0.8667 H         1 <0>         0.0965
     46 H8          3.1261   -1.0720    0.5928 H         1 <0>         0.1549
     47 H9          1.3773   -2.5584   -0.1042 H         1 <0>         0.1430
     48 H10         2.9797    4.1945    3.8111 H         1 <0>         0.1453
     49 H11         5.3033    3.4275    4.0157 H         1 <0>         0.1490
     50 H12         4.7598   -2.3456    1.8927 H         1 <0>         0.1023
     51 H13         5.0873   -1.3332    3.3196 H         1 <0>         0.0477
     52 H14         3.4088   -1.6460    2.8166 H         1 <0>         0.0535
     53 H15         6.4436    0.6698    3.7995 H         1 <0>         0.3873
     54 H16        -1.8631    2.1196    1.2312 H         1 <0>         0.1505
     55 H17        -3.4436    4.0307    1.5027 H         1 <0>         0.1280
     56 H18        -4.0029    6.2234    2.4600 H         1 <0>         0.1312
     57 H19        -2.3441    7.4489    3.7991 H         1 <0>         0.1294
     58 H20         0.4721    4.2834    3.2517 H         1 <0>         0.1594
     59 H21         0.3152    6.8153    1.7432 H         1 <0>         0.1268
     60 H22         2.1474    7.9587    0.5626 H         1 <0>         0.1242
     61 H23         3.9508    9.0417    1.8405 H         1 <0>         0.1246
     62 H24         3.9265    8.9844    4.3010 H         1 <0>         0.1307
     63 H25         2.0916    7.8535    5.4895 H         1 <0>         0.1316
     64 H26        -1.3206   -2.0363   -3.8103 H         1 <0>         0.0639
     65 H27        -1.7463   -3.3278   -2.6618 H         1 <0>         0.0677
     66 H28        -2.6520   -1.7955   -2.6537 H         1 <0>         0.0554
     67 H29         1.4590   -1.6607   -1.5732 H         1 <0>         0.0707
     68 H30         0.7221   -3.2799   -1.5139 H         1 <0>         0.0720
     69 H31         0.8714   -2.4263   -3.0687 H         1 <0>         0.0589
@<TRIPOS>BOND
     1    1    2 1
     2    1   39 1
     3    1   40 1
     4    1   41 1
     5    2    7 1
     6    2    3 2
     7    3    4 1
     8    3   42 1
     9    4    5 1
    10    4   37 1
    11    4   38 1
    12    5    6 1
    13    5   43 1
    14    6   11 1
    15    6    7 1
    16    6   44 1
    17    7    8 1
    18    7   45 1
    19    8   22 1
    20    8    9 2
    21    9   10 1
    22    9   12 1
    23   10   11 2
    24   10   46 1
    25   11   47 1
    26   12   17 ar
    27   12   13 ar
    28   13   14 ar
    29   13   21 1
    30   14   15 ar
    31   14   48 1
    32   15   16 ar
    33   15   49 1
    34   16   17 ar
    35   16   20 1
    36   17   18 1
    37   18   19 1
    38   19   50 1
    39   19   51 1
    40   19   52 1
    41   20   53 1
    42   21   22 1
    43   22   23 2
    44   23   24 1
    45   23   54 1
    46   24   29 ar
    47   24   25 ar
    48   25   26 ar
    49   25   55 1
    50   26   27 ar
    51   26   56 1
    52   27   28 ar
    53   27   57 1
    54   28   29 ar
    55   28   30 1
    56   29   58 1
    57   30   31 1
    58   31   36 ar
    59   31   32 ar
    60   32   33 ar
    61   32   59 1
    62   33   34 ar
    63   33   60 1
    64   34   35 ar
    65   34   61 1
    66   35   36 ar
    67   35   62 1
    68   36   63 1
    69   37   64 1
    70   37   65 1
    71   37   66 1
    72   38   67 1
    73   38   68 1
    74   38   69 1
@<TRIPOS>MOLECULE
CHEMBL231772__3
   70    75     0     0     0
SMALL
USER_CHARGES

@<TRIPOS>ATOM
      1 C1          0.2958    2.6372   -0.9756 C.3       1 <0>        -0.1388
      2 C2         -0.0706    1.2620   -0.4801 C.2       1 <0>        -0.0802
      3 C3         -0.3764    0.3477   -1.3509 C.2       1 <0>        -0.1800
      4 C4         -0.7509   -1.0541   -0.9643 C.3       1 <0>         0.1025
      5 N1         -1.1778   -1.0971    0.4390 N.4       1 <0>        -0.4964
      6 C5         -0.1374   -0.4896    1.2803 C.3       1 <0>         0.0773
      7 C6         -0.0611    1.0041    0.9998 C.3       1 <0>        -0.0217
      8 C7          1.1754    1.6012    1.6133 C.2       1 <0>        -0.1060
      9 C8          2.3215    0.8600    1.6942 C.2       1 <0>         0.0049
     10 C9          2.3329   -0.5289    1.2208 C.2       1 <0>        -0.0634
     11 C10         1.1818   -1.1585    1.0174 C.2       1 <0>        -0.2135
     12 C11         3.5256    1.4907    2.2650 C.ar      1 <0>        -0.1370
     13 C12         3.4378    2.8119    2.7300 C.ar      1 <0>         0.1356
     14 C13         4.5617    3.4202    3.2673 C.ar      1 <0>        -0.1217
     15 C14         5.7571    2.7300    3.3463 C.ar      1 <0>        -0.0720
     16 C15         5.8490    1.4234    2.8910 C.ar      1 <0>         0.0675
     17 C16         4.7338    0.7963    2.3483 C.ar      1 <0>         0.1268
     18 O1          4.8187   -0.4848    1.9024 O.3       1 <0>        -0.3210
     19 C17         4.7904   -1.5183    2.8889 C.3       1 <0>         0.0264
     20 O2          7.0313    0.7552    2.9757 O.3       1 <0>        -0.4781
     21 O3          2.2667    3.4854    2.6578 O.3       1 <0>        -0.2042
     22 C18         1.1713    2.9218    2.1077 C.2       1 <0>         0.1105
     23 C19         0.0252    3.6517    2.0269 C.2       1 <0>        -0.1573
     24 C20        -0.0541    4.9679    2.6731 C.ar      1 <0>        -0.0403
     25 C21        -1.1323    5.8204    2.4035 C.ar      1 <0>        -0.1087
     26 C22        -1.2021    7.0548    3.0132 C.ar      1 <0>        -0.1023
     27 C23        -0.2106    7.4558    3.8909 C.ar      1 <0>        -0.1187
     28 C24         0.8634    6.6185    4.1658 C.ar      1 <0>         0.0876
     29 C25         0.9439    5.3741    3.5656 C.ar      1 <0>        -0.1236
     30 O4          1.8332    7.0197    5.0291 O.3       1 <0>        -0.2598
     31 C26         3.0017    7.4773    4.5079 C.ar      1 <0>         0.1189
     32 C27         3.1254    7.6658    3.1388 C.ar      1 <0>        -0.1921
     33 C28         4.3144    8.1310    2.6115 C.ar      1 <0>        -0.0824
     34 C29         5.3809    8.4084    3.4467 C.ar      1 <0>        -0.1497
     35 C30         5.2604    8.2210    4.8114 C.ar      1 <0>        -0.0815
     36 C31         4.0715    7.7623    5.3444 C.ar      1 <0>        -0.1457
     37 C32        -1.8956   -1.5373   -1.8571 C.3       1 <0>        -0.1724
     38 C33         0.4580   -1.9724   -1.1545 C.3       1 <0>        -0.1839
     39 H1          1.3705    2.6859   -1.1507 H         1 <0>         0.0818
     40 H2         -0.2336    2.8410   -1.9063 H         1 <0>         0.0799
     41 H3          0.0154    3.3793   -0.2281 H         1 <0>         0.0843
     42 H4         -0.3600    0.6072   -2.3992 H         1 <0>         0.1534
     43 H5         -2.0396   -0.5832    0.5450 H         1 <0>         0.4311
     44 H6         -0.4029   -0.6310    2.3280 H         1 <0>         0.1525
     45 H7         -0.9299    1.4875    1.4466 H         1 <0>         0.1271
     46 H8          3.2710   -1.0340    1.0446 H         1 <0>         0.1741
     47 H9          1.1983   -2.1730    0.6474 H         1 <0>         0.1631
     48 H10         4.5033    4.4373    3.6258 H         1 <0>         0.1506
     49 H11         6.6271    3.2129    3.7661 H         1 <0>         0.1548
     50 H12         4.8656   -2.4895    2.3998 H         1 <0>         0.1057
     51 H13         5.6290   -1.3903    3.5733 H         1 <0>         0.0547
     52 H14         3.8551   -1.4634    3.4459 H         1 <0>         0.0506
     53 H15         7.1488    0.2668    3.8020 H         1 <0>         0.3911
     54 H16        -0.8258    3.2628    1.4875 H         1 <0>         0.1495
     55 H17        -1.9078    5.5112    1.7184 H         1 <0>         0.1286
     56 H18        -2.0338    7.7115    2.8047 H         1 <0>         0.1350
     57 H19        -0.2716    8.4246    4.3643 H         1 <0>         0.1340
     58 H20         1.7763    4.7208    3.7819 H         1 <0>         0.1509
     59 H21         2.2930    7.4486    2.4859 H         1 <0>         0.1254
     60 H22         4.4113    8.2779    1.5459 H         1 <0>         0.1253
     61 H23         6.3098    8.7717    3.0325 H         1 <0>         0.1266
     62 H24         6.0950    8.4380    5.4615 H         1 <0>         0.1328
     63 H25         3.9763    7.6206    6.4109 H         1 <0>         0.1327
     64 H26        -1.5759   -1.5197   -2.8991 H         1 <0>         0.1082
     65 H27        -2.1692   -2.5549   -1.5782 H         1 <0>         0.0845
     66 H28        -2.7570   -0.8817   -1.7302 H         1 <0>         0.0832
     67 H29         1.3675   -1.4369   -0.8822 H         1 <0>         0.1034
     68 H30         0.3500   -2.8515   -0.5192 H         1 <0>         0.0837
     69 H31         0.5177   -2.2830   -2.1976 H         1 <0>         0.1021
     70 H32        -1.3200   -2.0561    0.7188 H         1 <0>         0.4336
@<TRIPOS>BOND
     1    1    2 1
     2    1   39 1
     3    1   40 1
     4    1   41 1
     5    2    7 1
     6    2    3 2
     7    3    4 1
     8    3   42 1
     9    4    5 1
    10    4   37 1
    11    4   38 1
    12    5    6 1
    13    5   43 1
    14    5   70 1
    15    6   11 1
    16    6    7 1
    17    6   44 1
    18    7    8 1
    19    7   45 1
    20    8   22 1
    21    8    9 2
    22    9   10 1
    23    9   12 1
    24   10   11 2
    25   10   46 1
    26   11   47 1
    27   12   17 ar
    28   12   13 ar
    29   13   14 ar
    30   13   21 1
    31   14   15 ar
    32   14   48 1
    33   15   16 ar
    34   15   49 1
    35   16   17 ar
    36   16   20 1
    37   17   18 1
    38   18   19 1
    39   19   50 1
    40   19   51 1
    41   19   52 1
    42   20   53 1
    43   21   22 1
    44   22   23 2
    45   23   24 1
    46   23   54 1
    47   24   29 ar
    48   24   25 ar
    49   25   26 ar
    50   25   55 1
    51   26   27 ar
    52   26   56 1
    53   27   28 ar
    54   27   57 1
    55   28   29 ar
    56   28   30 1
    57   29   58 1
    58   30   31 1
    59   31   36 ar
    60   31   32 ar
    61   32   33 ar
    62   32   59 1
    63   33   34 ar
    64   33   60 1
    65   34   35 ar
    66   34   61 1
    67   35   36 ar
    68   35   62 1
    69   36   63 1
    70   37   64 1
    71   37   65 1
    72   37   66 1
    73   38   67 1
    74   38   68 1
    75   38   69 1
@<TRIPOS>MOLECULE
CHEMBL231772__4
   69    74     0     0     0
SMALL
USER_CHARGES

@<TRIPOS>ATOM
      1 C1          0.1845    1.4902   -0.7296 C.3       1 <0>        -0.1263
      2 C2          0.0820   -0.0090   -0.6160 C.2       1 <0>        -0.1024
      3 C3          0.2376   -0.7229   -1.6892 C.2       1 <0>        -0.1419
      4 C4          0.1513   -2.2223   -1.6941 C.3       1 <0>         0.1415
      5 N1          0.3255   -2.7423   -0.3321 N.3       1 <0>        -0.6638
      6 C5         -0.5949   -2.0702    0.5970 C.3       1 <0>         0.1174
      7 C6         -0.1894   -0.6073    0.7341 C.3       1 <0>         0.0140
      8 C7         -1.2632    0.1777    1.4354 C.2       1 <0>        -0.1127
      9 C8         -2.5765   -0.1629    1.2661 C.2       1 <0>         0.0058
     10 C9         -2.9344   -1.3181    0.4351 C.2       1 <0>        -0.1403
     11 C10        -2.0053   -2.2085    0.0985 C.2       1 <0>        -0.1604
     12 C11        -3.6048    0.6536    1.9365 C.ar      1 <0>        -0.1259
     13 C12        -3.1932    1.7235    2.7460 C.ar      1 <0>         0.1270
     14 C13        -4.1478    2.5025    3.3814 C.ar      1 <0>        -0.1248
     15 C14        -5.4928    2.2257    3.2204 C.ar      1 <0>        -0.0869
     16 C15        -5.9053    1.1681    2.4242 C.ar      1 <0>         0.0686
     17 C16        -4.9637    0.3758    1.7784 C.ar      1 <0>         0.1232
     18 O1         -5.3632   -0.6625    0.9975 O.3       1 <0>        -0.3233
     19 C17        -5.5130   -1.9330    1.6343 C.3       1 <0>         0.0324
     20 O2         -7.2322    0.9056    2.2756 O.3       1 <0>        -0.4861
     21 O3         -1.8769    1.9913    2.9074 O.3       1 <0>        -0.2111
     22 C18        -0.9349    1.2671    2.2685 C.2       1 <0>         0.1234
     23 C19         0.3750    1.5988    2.4333 C.2       1 <0>        -0.1748
     24 C20         0.7598    2.5882    3.4478 C.ar      1 <0>        -0.0211
     25 C21         2.0748    3.0676    3.5000 C.ar      1 <0>        -0.1154
     26 C22         2.4307    3.9968    4.4541 C.ar      1 <0>        -0.1010
     27 C23         1.4936    4.4579    5.3616 C.ar      1 <0>        -0.1291
     28 C24         0.1863    3.9895    5.3192 C.ar      1 <0>         0.0864
     29 C25        -0.1869    3.0609    4.3633 C.ar      1 <0>        -0.1400
     30 O4         -0.7281    4.4474    6.2140 O.3       1 <0>        -0.2575
     31 C26        -1.2088    3.5748    7.1382 C.ar      1 <0>         0.1221
     32 C27        -0.6770    2.2964    7.2296 C.ar      1 <0>        -0.1927
     33 C28        -1.1675    1.4113    8.1699 C.ar      1 <0>        -0.0824
     34 C29        -2.1878    1.7981    9.0193 C.ar      1 <0>        -0.1530
     35 C30        -2.7197    3.0712    8.9299 C.ar      1 <0>        -0.0831
     36 C31        -2.2284    3.9624    7.9958 C.ar      1 <0>        -0.1469
     37 C32         1.2471   -2.7906   -2.5981 C.3       1 <0>        -0.1346
     38 C33        -1.2167   -2.6500   -2.2293 C.3       1 <0>        -0.1864
     39 H1          1.2198    1.7961   -0.5786 H         1 <0>         0.0701
     40 H2         -0.1459    1.8030   -1.7201 H         1 <0>         0.0624
     41 H3         -0.4461    1.9560    0.0276 H         1 <0>         0.0656
     42 H4          0.4387   -0.2154   -2.6210 H         1 <0>         0.1138
     43 H5          0.1970   -3.7428   -0.3079 H         1 <0>         0.3490
     44 H6         -0.5171   -2.5424    1.5764 H         1 <0>         0.0972
     45 H7          0.7191   -0.5466    1.3333 H         1 <0>         0.1042
     46 H8         -3.9505   -1.4452    0.0920 H         1 <0>         0.1510
     47 H9         -2.2653   -3.0447   -0.5337 H         1 <0>         0.1368
     48 H10        -3.8396    3.3287    4.0050 H         1 <0>         0.1466
     49 H11        -6.2288    2.8386    3.7195 H         1 <0>         0.1491
     50 H12        -5.8352   -2.6716    0.9003 H         1 <0>         0.0993
     51 H13        -4.5588   -2.2393    2.0630 H         1 <0>         0.0514
     52 H14        -6.2591   -1.8573    2.4252 H         1 <0>         0.0551
     53 H15        -7.6437    1.3677    1.5325 H         1 <0>         0.3940
     54 H16         1.1312    1.1342    1.8179 H         1 <0>         0.1531
     55 H17         2.8092    2.7094    2.7938 H         1 <0>         0.1289
     56 H18         3.4449    4.3659    4.4936 H         1 <0>         0.1317
     57 H19         1.7798    5.1854    6.1067 H         1 <0>         0.1298
     58 H20        -1.2038    2.6992    4.3269 H         1 <0>         0.1526
     59 H21         0.1194    1.9936    6.5660 H         1 <0>         0.1283
     60 H22        -0.7540    0.4162    8.2415 H         1 <0>         0.1245
     61 H23        -2.5700    1.1044    9.7535 H         1 <0>         0.1245
     62 H24        -3.5168    3.3708    9.5943 H         1 <0>         0.1308
     63 H25        -2.6409    4.9583    7.9296 H         1 <0>         0.1319
     64 H26         2.2233   -2.4831   -2.2230 H         1 <0>         0.0653
     65 H27         1.1861   -3.8789   -2.6029 H         1 <0>         0.0570
     66 H28         1.1127   -2.4147   -3.6123 H         1 <0>         0.0616
     67 H29        -1.2017   -2.6339   -3.3191 H         1 <0>         0.0616
     68 H30        -1.4428   -3.6589   -1.8840 H         1 <0>         0.0596
     69 H31        -1.9802   -1.9621   -1.8663 H         1 <0>         0.0751
@<TRIPOS>BOND
     1    1    2 1
     2    1   39 1
     3    1   40 1
     4    1   41 1
     5    2    7 1
     6    2    3 2
     7    3    4 1
     8    3   42 1
     9    4    5 1
    10    4   37 1
    11    4   38 1
    12    5    6 1
    13    5   43 1
    14    6   11 1
    15    6    7 1
    16    6   44 1
    17    7    8 1
    18    7   45 1
    19    8   22 1
    20    8    9 2
    21    9   10 1
    22    9   12 1
    23   10   11 2
    24   10   46 1
    25   11   47 1
    26   12   17 ar
    27   12   13 ar
    28   13   14 ar
    29   13   21 1
    30   14   15 ar
    31   14   48 1
    32   15   16 ar
    33   15   49 1
    34   16   17 ar
    35   16   20 1
    36   17   18 1
    37   18   19 1
    38   19   50 1
    39   19   51 1
    40   19   52 1
    41   20   53 1
    42   21   22 1
    43   22   23 2
    44   23   24 1
    45   23   54 1
    46   24   29 ar
    47   24   25 ar
    48   25   26 ar
    49   25   55 1
    50   26   27 ar
    51   26   56 1
    52   27   28 ar
    53   27   57 1
    54   28   29 ar
    55   28   30 1
    56   29   58 1
    57   30   31 1
    58   31   36 ar
    59   31   32 ar
    60   32   33 ar
    61   32   59 1
    62   33   34 ar
    63   33   60 1
    64   34   35 ar
    65   34   61 1
    66   35   36 ar
    67   35   62 1
    68   36   63 1
    69   37   64 1
    70   37   65 1
    71   37   66 1
    72   38   67 1
    73   38   68 1
    74   38   69 1
@<TRIPOS>MOLECULE
CHEMBL231772__5
   70    75     0     0     0
SMALL
USER_CHARGES

@<TRIPOS>ATOM
      1 C1          0.0779    1.4973   -0.4056 C.3       1 <0>        -0.1361
      2 C2         -0.0087   -0.0033   -0.2976 C.2       1 <0>        -0.0810
      3 C3          0.1032   -0.7127   -1.3802 C.2       1 <0>        -0.1792
      4 C4          0.0280   -2.2124   -1.3839 C.3       1 <0>         0.1025
      5 N1          0.2953   -2.7378   -0.0401 N.4       1 <0>        -0.4969
      6 C5         -0.6022   -2.0843    0.9225 C.3       1 <0>         0.0762
      7 C6         -0.2146   -0.6165    1.0582 C.3       1 <0>        -0.0217
      8 C7         -1.2746    0.1443    1.8061 C.2       1 <0>        -0.1050
      9 C8         -2.5876   -0.2161    1.6811 C.2       1 <0>         0.0046
     10 C9         -2.9571   -1.3687    0.8516 C.2       1 <0>        -0.0687
     11 C10        -2.0272   -2.2396    0.4732 C.2       1 <0>        -0.2119
     12 C11        -3.6036    0.5768    2.3970 C.ar      1 <0>        -0.1400
     13 C12        -3.1798    1.6464    3.2007 C.ar      1 <0>         0.1330
     14 C13        -4.1230    2.4034    3.8785 C.ar      1 <0>        -0.1213
     15 C14        -5.4682    2.1054    3.7649 C.ar      1 <0>        -0.0747
     16 C15        -5.8925    1.0480    2.9745 C.ar      1 <0>         0.0766
     17 C16        -4.9627    0.2774    2.2867 C.ar      1 <0>         0.1246
     18 O1         -5.3737   -0.7611    1.5123 O.3       1 <0>        -0.3256
     19 C17        -5.4787   -2.0391    2.1431 C.3       1 <0>         0.0277
     20 O2         -7.2195    0.7646    2.8726 O.3       1 <0>        -0.4838
     21 O3         -1.8632    1.9349    3.3159 O.3       1 <0>        -0.2046
     22 C18        -0.9334    1.2307    2.6377 C.2       1 <0>         0.1067
     23 C19         0.3764    1.5801    2.7605 C.2       1 <0>        -0.1529
     24 C20         0.7815    2.5679    3.7687 C.ar      1 <0>        -0.0396
     25 C21         2.0902    3.0668    3.7791 C.ar      1 <0>        -0.1111
     26 C22         2.4651    3.9943    4.7275 C.ar      1 <0>        -0.1003
     27 C23         1.5533    4.4346    5.6705 C.ar      1 <0>        -0.1174
     28 C24         0.2525    3.9466    5.6697 C.ar      1 <0>         0.0898
     29 C25        -0.1397    3.0195    4.7201 C.ar      1 <0>        -0.1330
     30 O4         -0.6370    4.3841    6.5992 O.3       1 <0>        -0.2567
     31 C26        -1.0751    3.4966    7.5303 C.ar      1 <0>         0.1190
     32 C27        -0.5247    2.2243    7.5908 C.ar      1 <0>        -0.1952
     33 C28        -0.9719    1.3240    8.5383 C.ar      1 <0>        -0.0837
     34 C29        -1.9674    1.6895    9.4255 C.ar      1 <0>        -0.1500
     35 C30        -2.5179    2.9566    9.3670 C.ar      1 <0>        -0.0804
     36 C31        -2.0697    3.8629    8.4258 C.ar      1 <0>        -0.1438
     37 C32         1.0650   -2.7693   -2.3613 C.3       1 <0>        -0.1726
     38 C33        -1.3691   -2.6486   -1.8298 C.3       1 <0>        -0.1836
     39 H1          1.1167    1.8099   -0.2993 H         1 <0>         0.0859
     40 H2         -0.2991    1.8139   -1.3781 H         1 <0>         0.0790
     41 H3         -0.5213    1.9534    0.3825 H         1 <0>         0.0793
     42 H4          0.2567   -0.2012   -2.3189 H         1 <0>         0.1535
     43 H5          0.1336   -3.7337   -0.0293 H         1 <0>         0.4334
     44 H6         -0.4843   -2.5612    1.8956 H         1 <0>         0.1519
     45 H7          0.7161   -0.5456    1.6212 H         1 <0>         0.1279
     46 H8         -3.9828   -1.5087    0.5437 H         1 <0>         0.1735
     47 H9         -2.2970   -3.0730   -0.1586 H         1 <0>         0.1653
     48 H10        -3.8055    3.2292    4.4980 H         1 <0>         0.1517
     49 H11        -6.1951    2.7012    4.2969 H         1 <0>         0.1555
     50 H12        -5.8158   -2.7770    1.4152 H         1 <0>         0.1040
     51 H13        -4.5044   -2.3326    2.5337 H         1 <0>         0.0478
     52 H14        -6.1962   -1.9823    2.9618 H         1 <0>         0.0622
     53 H15        -7.6659    1.2263    2.1497 H         1 <0>         0.3993
     54 H16         1.1178    1.1309    2.1163 H         1 <0>         0.1481
     55 H17         2.8049    2.7250    3.0451 H         1 <0>         0.1283
     56 H18         3.4744    4.3785    4.7347 H         1 <0>         0.1354
     57 H19         1.8544    5.1609    6.4109 H         1 <0>         0.1348
     58 H20        -1.1519    2.6427    4.7161 H         1 <0>         0.1529
     59 H21         0.2524    1.9380    6.8976 H         1 <0>         0.1258
     60 H22        -0.5438    0.3336    8.5858 H         1 <0>         0.1241
     61 H23        -2.3159    0.9840   10.1653 H         1 <0>         0.1264
     62 H24        -3.2956    3.2395   10.0610 H         1 <0>         0.1335
     63 H25        -2.4966    4.8541    8.3837 H         1 <0>         0.1339
     64 H26         2.0617   -2.4551   -2.0515 H         1 <0>         0.0831
     65 H27         1.0122   -3.8581   -2.3657 H         1 <0>         0.0847
     66 H28         0.8599   -2.3916   -3.3630 H         1 <0>         0.1083
     67 H29        -1.4193   -2.6493   -2.9186 H         1 <0>         0.1023
     68 H30        -1.5731   -3.6520   -1.4560 H         1 <0>         0.0838
     69 H31        -2.1103   -1.9552   -1.4323 H         1 <0>         0.1035
     70 H32         1.2541   -2.5487    0.2111 H         1 <0>         0.4309
@<TRIPOS>BOND
     1    1    2 1
     2    1   39 1
     3    1   40 1
     4    1   41 1
     5    2    7 1
     6    2    3 2
     7    3    4 1
     8    3   42 1
     9    4    5 1
    10    4   37 1
    11    4   38 1
    12    5    6 1
    13    5   43 1
    14    5   70 1
    15    6   11 1
    16    6    7 1
    17    6   44 1
    18    7    8 1
    19    7   45 1
    20    8   22 1
    21    8    9 2
    22    9   10 1
    23    9   12 1
    24   10   11 2
    25   10   46 1
    26   11   47 1
    27   12   17 ar
    28   12   13 ar
    29   13   14 ar
    30   13   21 1
    31   14   15 ar
    32   14   48 1
    33   15   16 ar
    34   15   49 1
    35   16   17 ar
    36   16   20 1
    37   17   18 1
    38   18   19 1
    39   19   50 1
    40   19   51 1
    41   19   52 1
    42   20   53 1
    43   21   22 1
    44   22   23 2
    45   23   24 1
    46   23   54 1
    47   24   29 ar
    48   24   25 ar
    49   25   26 ar
    50   25   55 1
    51   26   27 ar
    52   26   56 1
    53   27   28 ar
    54   27   57 1
    55   28   29 ar
    56   28   30 1
    57   29   58 1
    58   30   31 1
    59   31   36 ar
    60   31   32 ar
    61   32   33 ar
    62   32   59 1
    63   33   34 ar
    64   33   60 1
    65   34   35 ar
    66   34   61 1
    67   35   36 ar
    68   35   62 1
    69   36   63 1
    70   37   64 1
    71   37   65 1
    72   37   66 1
    73   38   67 1
    74   38   68 1
    75   38   69 1
@<TRIPOS>MOLECULE
CHEMBL231772__6
   69    74     0     0     0
SMALL
USER_CHARGES

@<TRIPOS>ATOM
      1 C1          0.6487    4.0738   -0.8442 C.3       1 <0>        -0.1219
      2 C2         -0.0331    2.7952   -1.2785 C.2       1 <0>        -0.0995
      3 C3         -0.0592    2.5385   -2.5610 C.2       1 <0>        -0.1813
      4 C4         -0.7711    1.3585   -3.1522 C.3       1 <0>         0.1431
      5 N1         -1.7891    0.8629   -2.2131 N.3       1 <0>        -0.6605
      6 C5         -1.2078    0.6061   -0.9068 C.3       1 <0>         0.1204
      7 C6         -0.6623    1.9003   -0.2822 C.3       1 <0>        -0.0321
      8 C7          0.1080    1.4805    0.9218 C.2       1 <0>        -0.1031
      9 C8         -0.5689    0.6158    1.7797 C.2       1 <0>        -0.0087
     10 C9         -1.8899    0.1144    1.3817 C.2       1 <0>        -0.1217
     11 C10        -2.2205    0.0733    0.0814 C.2       1 <0>        -0.1197
     12 C11         0.0776    0.2668    3.0541 C.ar      1 <0>        -0.1227
     13 C12         1.2522    0.9518    3.4196 C.ar      1 <0>         0.1282
     14 C13         1.8737    0.6751    4.6235 C.ar      1 <0>        -0.1276
     15 C14         1.3537   -0.2879    5.4685 C.ar      1 <0>        -0.0880
     16 C15         0.2105   -0.9848    5.1122 C.ar      1 <0>         0.0635
     17 C16        -0.4290   -0.7160    3.9054 C.ar      1 <0>         0.1253
     18 O1         -1.5328   -1.4359    3.5732 O.3       1 <0>        -0.3257
     19 C17        -1.3220   -2.6496    2.8491 C.3       1 <0>         0.0399
     20 O2         -0.2915   -1.9383    5.9439 O.3       1 <0>        -0.4867
     21 O3          1.7841    1.8706    2.5701 O.3       1 <0>        -0.2304
     22 C18         1.4321    1.7626    1.2583 C.2       1 <0>         0.1085
     23 C19         2.4197    1.8336    0.3316 C.2       1 <0>        -0.1320
     24 C20         3.7140    2.4320    0.6823 C.ar      1 <0>        -0.0326
     25 C21         4.7881    2.3607   -0.2139 C.ar      1 <0>        -0.1072
     26 C22         6.0009    2.9245    0.1201 C.ar      1 <0>        -0.1050
     27 C23         6.1620    3.5607    1.3381 C.ar      1 <0>        -0.1222
     28 C24         5.1036    3.6375    2.2348 C.ar      1 <0>         0.0822
     29 C25         3.8785    3.0811    1.9108 C.ar      1 <0>        -0.1182
     30 O4          5.2699    4.2641    3.4291 O.3       1 <0>        -0.2585
     31 C26         4.7729    5.5215    3.5645 C.ar      1 <0>         0.1230
     32 C27         4.9591    6.2186    4.7497 C.ar      1 <0>        -0.1470
     33 C28         4.4529    7.4967    4.8848 C.ar      1 <0>        -0.0827
     34 C29         3.7607    8.0814    3.8403 C.ar      1 <0>        -0.1536
     35 C30         3.5734    7.3888    2.6583 C.ar      1 <0>        -0.0820
     36 C31         4.0833    6.1129    2.5157 C.ar      1 <0>        -0.1939
     37 C32         0.2330    0.2582   -3.4812 C.3       1 <0>        -0.1334
     38 C33        -1.4664    1.8002   -4.4444 C.3       1 <0>        -0.1402
     39 H1          1.6995    3.8727   -0.6361 H         1 <0>         0.0748
     40 H2          0.5712    4.8151   -1.6395 H         1 <0>         0.0640
     41 H3          0.1665    4.4550    0.0560 H         1 <0>         0.0603
     42 H4          0.4575    3.2107   -3.2249 H         1 <0>         0.1135
     43 H5         -2.5704    1.4992   -2.1577 H         1 <0>         0.3482
     44 H6         -0.4017   -0.1183   -0.9737 H         1 <0>         0.0950
     45 H7         -1.5573    2.4421    0.1019 H         1 <0>         0.0876
     46 H8         -2.6110   -0.1997    2.1212 H         1 <0>         0.1400
     47 H9         -3.1623   -0.3191   -0.2527 H         1 <0>         0.1383
     48 H10         2.7676    1.2112    4.9074 H         1 <0>         0.1461
     49 H11         1.8412   -0.4969    6.4086 H         1 <0>         0.1477
     50 H12        -2.2824   -3.1244    2.6484 H         1 <0>         0.0984
     51 H13        -0.8221   -2.4280    1.9061 H         1 <0>         0.0466
     52 H14        -0.7006   -3.3222    3.4404 H         1 <0>         0.0526
     53 H15        -0.9337   -1.6029    6.5845 H         1 <0>         0.3933
     54 H16         2.2542    1.4501   -0.6643 H         1 <0>         0.1445
     55 H17         4.6663    1.8643   -1.1653 H         1 <0>         0.1292
     56 H18         6.8285    2.8691   -0.5715 H         1 <0>         0.1325
     57 H19         7.1153    3.9995    1.5933 H         1 <0>         0.1307
     58 H20         3.0540    3.1439    2.6055 H         1 <0>         0.1506
     59 H21         5.4991    5.7621    5.5661 H         1 <0>         0.1319
     60 H22         4.5975    8.0397    5.8071 H         1 <0>         0.1310
     61 H23         3.3654    9.0806    3.9480 H         1 <0>         0.1248
     62 H24         3.0321    7.8476    1.8441 H         1 <0>         0.1246
     63 H25         3.9409    5.5742    1.5905 H         1 <0>         0.1274
     64 H26         0.7454   -0.0504   -2.5700 H         1 <0>         0.0522
     65 H27        -0.2913   -0.5957   -3.9102 H         1 <0>         0.0673
     66 H28         0.9624    0.6346   -4.1985 H         1 <0>         0.0628
     67 H29        -0.7224    2.1740   -5.1478 H         1 <0>         0.0647
     68 H30        -1.9883    0.9506   -4.8848 H         1 <0>         0.0679
     69 H31        -2.1831    2.5901   -4.2196 H         1 <0>         0.0557
@<TRIPOS>BOND
     1    1    2 1
     2    1   39 1
     3    1   40 1
     4    1   41 1
     5    2    7 1
     6    2    3 2
     7    3    4 1
     8    3   42 1
     9    4    5 1
    10    4   37 1
    11    4   38 1
    12    5    6 1
    13    5   43 1
    14    6   11 1
    15    6    7 1
    16    6   44 1
    17    7    8 1
    18    7   45 1
    19    8   22 1
    20    8    9 2
    21    9   10 1
    22    9   12 1
    23   10   11 2
    24   10   46 1
    25   11   47 1
    26   12   17 ar
    27   12   13 ar
    28   13   14 ar
    29   13   21 1
    30   14   15 ar
    31   14   48 1
    32   15   16 ar
    33   15   49 1
    34   16   17 ar
    35   16   20 1
    36   17   18 1
    37   18   19 1
    38   19   50 1
    39   19   51 1
    40   19   52 1
    41   20   53 1
    42   21   22 1
    43   22   23 2
    44   23   24 1
    45   23   54 1
    46   24   29 ar
    47   24   25 ar
    48   25   26 ar
    49   25   55 1
    50   26   27 ar
    51   26   56 1
    52   27   28 ar
    53   27   57 1
    54   28   29 ar
    55   28   30 1
    56   29   58 1
    57   30   31 1
    58   31   36 ar
    59   31   32 ar
    60   32   33 ar
    61   32   59 1
    62   33   34 ar
    63   33   60 1
    64   34   35 ar
    65   34   61 1
    66   35   36 ar
    67   35   62 1
    68   36   63 1
    69   37   64 1
    70   37   65 1
    71   37   66 1
    72   38   67 1
    73   38   68 1
    74   38   69 1
@<TRIPOS>MOLECULE
CHEMBL231772__7
   70    75     0     0     0
SMALL
USER_CHARGES

@<TRIPOS>ATOM
      1 C1          0.4336    3.1862   -0.3116 C.3       1 <0>        -0.1325
      2 C2         -0.0001    1.8205   -0.7957 C.2       1 <0>        -0.0692
      3 C3         -0.1248    1.6541   -2.0876 C.2       1 <0>        -0.1905
      4 C4         -0.6322    0.3893   -2.7115 C.3       1 <0>         0.1013
      5 N1         -1.4085   -0.3847   -1.7313 N.4       1 <0>        -0.4878
      6 C5         -0.6169   -0.5974   -0.5322 C.3       1 <0>         0.0518
      7 C6         -0.2946    0.7334    0.1660 C.3       1 <0>        -0.0083
      8 C7          0.6976    0.4092    1.2292 C.2       1 <0>        -0.1024
      9 C8          0.3499   -0.6599    2.0526 C.2       1 <0>        -0.0074
     10 C9         -0.8673   -1.4223    1.7488 C.2       1 <0>        -0.0399
     11 C10        -1.3481   -1.4314    0.4962 C.2       1 <0>        -0.2074
     12 C11         1.2205   -0.9550    3.2012 C.ar      1 <0>        -0.1397
     13 C12         2.2398   -0.0386    3.5226 C.ar      1 <0>         0.1364
     14 C13         3.0591   -0.2620    4.6136 C.ar      1 <0>        -0.1241
     15 C14         2.8925   -1.3970    5.3860 C.ar      1 <0>        -0.0748
     16 C15         1.9078   -2.3183    5.0688 C.ar      1 <0>         0.0697
     17 C16         1.0730   -2.1065    3.9753 C.ar      1 <0>         0.1279
     18 O1          0.1363   -3.0434    3.6725 O.3       1 <0>        -0.3283
     19 C17         0.5322   -4.0950    2.7896 C.3       1 <0>         0.0373
     20 O2          1.7544   -3.4380    5.8277 O.3       1 <0>        -0.4849
     21 O3          2.4283    1.0540    2.7348 O.3       1 <0>        -0.2247
     22 C18         1.9545    0.9695    1.4595 C.2       1 <0>         0.0860
     23 C19         2.7828    1.3431    0.4531 C.2       1 <0>        -0.1057
     24 C20         3.9217    2.2277    0.7296 C.ar      1 <0>        -0.0527
     25 C21         4.8897    2.4576   -0.2563 C.ar      1 <0>        -0.1006
     26 C22         5.9567    3.2894    0.0083 C.ar      1 <0>        -0.1056
     27 C23         6.0759    3.8983    1.2450 C.ar      1 <0>        -0.1148
     28 C24         5.1218    3.6775    2.2304 C.ar      1 <0>         0.0852
     29 C25         4.0421    2.8496    1.9771 C.ar      1 <0>        -0.1019
     30 O4          5.2460    4.2793    3.4424 O.3       1 <0>        -0.2593
     31 C26         4.7394    5.5318    3.5877 C.ar      1 <0>         0.1195
     32 C27         4.9226    6.2219    4.7775 C.ar      1 <0>        -0.1442
     33 C28         4.4065    7.4950    4.9226 C.ar      1 <0>        -0.0801
     34 C29         3.7075    8.0815    3.8837 C.ar      1 <0>        -0.1500
     35 C30         3.5231    7.3959    2.6973 C.ar      1 <0>        -0.0831
     36 C31         4.0428    6.1251    2.5446 C.ar      1 <0>        -0.1954
     37 C32         0.5359   -0.4345   -3.2426 C.3       1 <0>        -0.1712
     38 C33        -1.5516    0.7558   -3.8822 C.3       1 <0>        -0.1737
     39 H1          1.5203    3.2154   -0.2322 H         1 <0>         0.0910
     40 H2          0.1004    3.9453   -1.0193 H         1 <0>         0.0804
     41 H3         -0.0075    3.3822    0.6658 H         1 <0>         0.0754
     42 H4          0.1525    2.4694   -2.7348 H         1 <0>         0.1547
     43 H5         -2.2536    0.1238   -1.5007 H         1 <0>         0.4303
     44 H6          0.3136   -1.1071   -0.7613 H         1 <0>         0.1484
     45 H7         -1.2299    1.0262    0.6958 H         1 <0>         0.1191
     46 H8         -1.3953   -1.9576    2.5240 H         1 <0>         0.1608
     47 H9         -2.2157   -2.0019    0.2246 H         1 <0>         0.1568
     48 H10         3.8310    0.4500    4.8672 H         1 <0>         0.1520
     49 H11         3.5329   -1.5647    6.2385 H         1 <0>         0.1540
     50 H12        -0.3072   -4.7721    2.6317 H         1 <0>         0.1015
     51 H13         0.8412   -3.6704    1.8344 H         1 <0>         0.0419
     52 H14         1.3646   -4.6444    3.2292 H         1 <0>         0.0591
     53 H15         1.1399   -3.3310    6.5667 H         1 <0>         0.3987
     54 H16         2.6048    0.9900   -0.5519 H         1 <0>         0.1429
     55 H17         4.8005    1.9835   -1.2226 H         1 <0>         0.1294
     56 H18         6.7027    3.4661   -0.7525 H         1 <0>         0.1357
     57 H19         6.9149    4.5481    1.4453 H         1 <0>         0.1342
     58 H20         3.2977    2.6806    2.7411 H         1 <0>         0.1490
     59 H21         5.4679    5.7640    5.5895 H         1 <0>         0.1334
     60 H22         4.5488    8.0326    5.8485 H         1 <0>         0.1336
     61 H23         3.3045    9.0768    3.9994 H         1 <0>         0.1270
     62 H24         2.9764    7.8561    1.8875 H         1 <0>         0.1253
     63 H25         3.9027    5.5918    1.6159 H         1 <0>         0.1244
     64 H26         1.2077   -0.6839   -2.4213 H         1 <0>         0.0782
     65 H27         0.1580   -1.3518   -3.6943 H         1 <0>         0.0859
     66 H28         1.0770    0.1433   -3.9920 H         1 <0>         0.1107
     67 H29        -0.9911    1.3333   -4.6174 H         1 <0>         0.1096
     68 H30        -1.9291   -0.1551   -4.3468 H         1 <0>         0.0852
     69 H31        -2.3883    1.3500   -3.5149 H         1 <0>         0.0840
     70 H32        -1.6682   -1.2743   -2.1378 H         1 <0>         0.4326
@<TRIPOS>BOND
     1    1    2 1
     2    1   39 1
     3    1   40 1
     4    1   41 1
     5    2    7 1
     6    2    3 2
     7    3    4 1
     8    3   42 1
     9    4    5 1
    10    4   37 1
    11    4   38 1
    12    5    6 1
    13    5   43 1
    14    5   70 1
    15    6   11 1
    16    6    7 1
    17    6   44 1
    18    7    8 1
    19    7   45 1
    20    8   22 1
    21    8    9 2
    22    9   10 1
    23    9   12 1
    24   10   11 2
    25   10   46 1
    26   11   47 1
    27   12   17 ar
    28   12   13 ar
    29   13   14 ar
    30   13   21 1
    31   14   15 ar
    32   14   48 1
    33   15   16 ar
    34   15   49 1
    35   16   17 ar
    36   16   20 1
    37   17   18 1
    38   18   19 1
    39   19   50 1
    40   19   51 1
    41   19   52 1
    42   20   53 1
    43   21   22 1
    44   22   23 2
    45   23   24 1
    46   23   54 1
    47   24   29 ar
    48   24   25 ar
    49   25   26 ar
    50   25   55 1
    51   26   27 ar
    52   26   56 1
    53   27   28 ar
    54   27   57 1
    55   28   29 ar
    56   28   30 1
    57   29   58 1
    58   30   31 1
    59   31   36 ar
    60   31   32 ar
    61   32   33 ar
    62   32   59 1
    63   33   34 ar
    64   33   60 1
    65   34   35 ar
    66   34   61 1
    67   35   36 ar
    68   35   62 1
    69   36   63 1
    70   37   64 1
    71   37   65 1
    72   37   66 1
    73   38   67 1
    74   38   68 1
    75   38   69 1
@<TRIPOS>MOLECULE
CHEMBL361245
   58    62     0     0     0
SMALL
USER_CHARGES

@<TRIPOS>ATOM
      1 C1          0.3702    1.0792    0.9204 C.3       1 <0>        -0.2060
      2 C2         -0.0283    0.1171   -0.1688 C.2       1 <0>         0.3554
      3 O1          0.6303    0.0413   -1.1782 O.2       1 <0>        -0.4312
      4 C3         -1.2454   -0.7482    0.0010 C.3       1 <0>         0.0758
      5 C4         -1.7292   -1.2851   -1.3721 C.3       1 <0>        -0.1342
      6 C5         -1.8679   -2.8278   -1.2107 C.3       1 <0>        -0.1198
      7 C6         -2.0008   -2.9691    0.3133 C.3       1 <0>        -0.0714
      8 C7         -0.8787   -2.0211    0.7930 C.3       1 <0>        -0.0267
      9 C8         -0.9139   -1.8902    2.2916 C.3       1 <0>        -0.1063
     10 C9         -0.9459   -3.2594    2.9843 C.3       1 <0>        -0.1067
     11 C10        -0.8701   -4.4239    2.0194 C.3       1 <0>        -0.0659
     12 C11        -1.9101   -4.3315    0.9091 C.3       1 <0>        -0.0405
     13 C12        -1.6867   -5.4392   -0.0916 C.2       1 <0>        -0.0932
     14 C13        -1.6359   -6.6885    0.4450 C.2       1 <0>        -0.0852
     15 C14        -1.8109   -6.7230    1.9168 C.2       1 <0>         0.0290
     16 C15        -2.6804   -7.6052    2.4413 C.2       1 <0>        -0.2174
     17 C16        -2.9382   -7.7055    3.8156 C.2       1 <0>         0.4170
     18 O2         -3.6067   -8.6222    4.2481 O.2       1 <0>        -0.4493
     19 C17        -2.3947   -6.6555    4.7526 C.3       1 <0>        -0.2092
     20 H1         -2.2441   -6.9698    5.7832 H         1 <0>         0.1328
     21 C18        -2.8398   -5.2121    4.5002 C.3       1 <0>        -0.1421
     22 C19        -1.4123   -5.6420    4.1684 C.3       1 <0>        -0.1147
     23 C20        -0.9851   -5.7714    2.7264 C.3       1 <0>        -0.0013
     24 C21         0.4345   -6.3495    2.7480 C.3       1 <0>        -0.1463
     25 Cl1        -1.3890   -8.1158   -0.5123 Cl        1 <0>        -0.0468
     26 C22         0.5086   -2.4376    0.3046 C.3       1 <0>        -0.1635
     27 O3         -2.2902   -0.0406    0.6598 O.3       1 <0>        -0.3254
     28 C23        -2.7481    1.0688    0.0586 C.2       1 <0>         0.4506
     29 O4         -2.3206    1.3889   -1.0252 O.2       1 <0>        -0.4993
     30 C24        -3.7953    1.9151    0.7355 C.3       1 <0>        -0.1485
     31 H2          1.3180    1.5504    0.6602 H         1 <0>         0.0882
     32 H3         -0.3985    1.8445    1.0282 H         1 <0>         0.0878
     33 H4          0.4792    0.5387    1.8607 H         1 <0>         0.0968
     34 H5         -2.6938   -0.8496   -1.6252 H         1 <0>         0.0783
     35 H6         -0.9935   -1.0576   -2.1420 H         1 <0>         0.0946
     36 H7         -2.7807   -3.1738   -1.7015 H         1 <0>         0.0737
     37 H8         -1.0062   -3.3505   -1.6016 H         1 <0>         0.0812
     38 H9         -2.9775   -2.5255    0.6004 H         1 <0>         0.0868
     39 H10        -0.0301   -1.3319    2.6328 H         1 <0>         0.0651
     40 H11        -1.7991   -1.3127    2.5938 H         1 <0>         0.0807
     41 H12        -0.1114   -3.3213    3.6955 H         1 <0>         0.0710
     42 H13        -1.8747   -3.3326    3.5685 H         1 <0>         0.0759
     43 H14         0.1234   -4.4516    1.5708 H         1 <0>         0.0895
     44 H15        -2.8930   -4.5446    1.3822 H         1 <0>         0.0837
     45 H16        -1.5789   -5.2588   -1.1481 H         1 <0>         0.1438
     46 H17        -3.2080   -8.2662    1.7704 H         1 <0>         0.1376
     47 H18        -3.5210   -5.0346    3.6684 H         1 <0>         0.1010
     48 H19        -2.9846   -4.5715    5.3703 H         1 <0>         0.1124
     49 H20        -0.6309   -5.2880    4.8451 H         1 <0>         0.1249
     50 H21         1.0944   -5.6720    3.2899 H         1 <0>         0.0711
     51 H22         0.4240   -7.3203    3.2435 H         1 <0>         0.0621
     52 H23         0.7945   -6.4671    1.7259 H         1 <0>         0.0645
     53 H24         1.1924   -1.5930    0.3897 H         1 <0>         0.0596
     54 H25         0.8749   -3.2644    0.9130 H         1 <0>         0.0784
     55 H26         0.4477   -2.7522   -0.7373 H         1 <0>         0.0728
     56 H27        -4.0553    1.4716    1.6967 H         1 <0>         0.0939
     57 H28        -3.4040    2.9202    0.8931 H         1 <0>         0.1074
     58 H29        -4.6840    1.9656    0.1064 H         1 <0>         0.1072
@<TRIPOS>BOND
     1    1    2 1
     2    1   31 1
     3    1   32 1
     4    1   33 1
     5    2    3 2
     6    2    4 1
     7    4    8 1
     8    4    5 1
     9    4   27 1
    10    5    6 1
    11    5   34 1
    12    5   35 1
    13    6    7 1
    14    6   36 1
    15    6   37 1
    16    7   12 1
    17    7    8 1
    18    7   38 1
    19    8    9 1
    20    8   26 1
    21    9   10 1
    22    9   39 1
    23    9   40 1
    24   10   11 1
    25   10   41 1
    26   10   42 1
    27   11   23 1
    28   11   12 1
    29   11   43 1
    30   12   13 1
    31   12   44 1
    32   13   14 2
    33   13   45 1
    34   14   15 1
    35   14   25 1
    36   15   23 1
    37   15   16 2
    38   16   17 1
    39   16   46 1
    40   17   18 2
    41   17   19 1
    42   19   20 1
    43   19   22 1
    44   19   21 1
    45   21   22 1
    46   21   47 1
    47   21   48 1
    48   22   23 1
    49   22   49 1
    50   23   24 1
    51   24   50 1
    52   24   51 1
    53   24   52 1
    54   26   53 1
    55   26   54 1
    56   26   55 1
    57   27   28 1
    58   28   29 2
    59   28   30 1
    60   30   56 1
    61   30   57 1
    62   30   58 1
@<TRIPOS>MOLECULE
CHEMBL361245__1
   58    62     0     0     0
SMALL
USER_CHARGES

@<TRIPOS>ATOM
      1 C1          0.3797    1.0959    0.9163 C.3       1 <0>        -0.2060
      2 C2         -0.0260    0.1417   -0.1773 C.2       1 <0>         0.3558
      3 O1          0.6279    0.0708   -1.1901 O.2       1 <0>        -0.4313
      4 C3         -1.2448   -0.7222   -0.0073 C.3       1 <0>         0.0763
      5 C4         -1.7393   -1.2398   -1.3829 C.3       1 <0>        -0.1345
      6 C5         -1.8630   -2.7853   -1.2482 C.3       1 <0>        -0.1199
      7 C6         -1.9846   -2.9558    0.2754 C.3       1 <0>        -0.0774
      8 C7         -0.8771   -2.0036    0.7701 C.3       1 <0>        -0.0255
      9 C8         -0.9583   -1.8937    2.2704 C.3       1 <0>        -0.1044
     10 C9         -0.9582   -3.2756    2.9284 C.3       1 <0>        -0.1171
     11 C10        -0.8541   -4.4399    1.9589 C.3       1 <0>        -0.0627
     12 C11        -1.8385   -4.3589    0.8063 C.3       1 <0>        -0.0331
     13 C12        -3.2029   -4.8726    1.1723 C.2       1 <0>        -0.0882
     14 C13        -3.4785   -5.5908    2.2503 C.2       1 <0>        -0.0665
     15 C14        -2.4019   -5.9539    3.1866 C.2       1 <0>         0.0312
     16 C15        -2.7376   -6.4511    4.3926 C.2       1 <0>        -0.2293
     17 C16        -1.7988   -6.8351    5.3587 C.2       1 <0>         0.4182
     18 O2         -2.1539   -7.4180    6.3618 O.2       1 <0>        -0.4508
     19 C17        -0.3423   -6.5014    5.1492 C.3       1 <0>        -0.2106
     20 H1          0.3732   -7.1536    5.6430 H         1 <0>         0.1321
     21 C18         0.0008   -5.0116    5.0389 C.3       1 <0>        -0.1460
     22 C19         0.0493   -5.9003    3.8016 C.3       1 <0>        -0.1165
     23 C20        -0.9954   -5.7657    2.7152 C.3       1 <0>         0.0011
     24 C21        -0.7060   -6.8899    1.7085 C.3       1 <0>        -0.1487
     25 Cl1        -5.1085   -6.1044    2.5590 Cl        1 <0>        -0.0600
     26 C22         0.5216   -2.4092    0.3092 C.3       1 <0>        -0.1624
     27 O3         -2.2828   -0.0161    0.6642 O.3       1 <0>        -0.3253
     28 C23        -2.7417    1.0990    0.0745 C.2       1 <0>         0.4509
     29 O4         -2.3216    1.4253   -1.0104 O.2       1 <0>        -0.4996
     30 C24        -3.7808    1.9439    0.7655 C.3       1 <0>        -0.1487
     31 H2          1.3275    1.5664    0.6548 H         1 <0>         0.0884
     32 H3         -0.3866    1.8624    1.0324 H         1 <0>         0.0877
     33 H4          0.4915    0.5492    1.8526 H         1 <0>         0.0968
     34 H5         -2.7108   -0.8089   -1.6173 H         1 <0>         0.0779
     35 H6         -1.0155   -0.9913   -2.1573 H         1 <0>         0.0948
     36 H7         -2.7732   -3.1334   -1.7409 H         1 <0>         0.0735
     37 H8         -0.9948   -3.2921   -1.6486 H         1 <0>         0.0811
     38 H9         -2.9691   -2.5608    0.5863 H         1 <0>         0.0879
     39 H10        -0.1062   -1.3109    2.6456 H         1 <0>         0.0658
     40 H11        -1.8747   -1.3594    2.5563 H         1 <0>         0.0794
     41 H12        -0.1068   -3.3169    3.6247 H         1 <0>         0.0785
     42 H13        -1.8711   -3.3846    3.5273 H         1 <0>         0.0632
     43 H14         0.1709   -4.4704    1.5491 H         1 <0>         0.0941
     44 H15        -1.4689   -4.9859   -0.0180 H         1 <0>         0.0991
     45 H16        -4.0165   -4.6342    0.5012 H         1 <0>         0.1275
     46 H17        -3.7850   -6.5581    4.6300 H         1 <0>         0.1397
     47 H18        -0.8250   -4.3069    5.1381 H         1 <0>         0.1065
     48 H19         0.9490   -4.6838    5.4668 H         1 <0>         0.1117
     49 H20         1.0451   -6.1619    3.4341 H         1 <0>         0.1233
     50 H21         0.3047   -6.7757    1.3169 H         1 <0>         0.0713
     51 H22        -0.7958   -7.8554    2.2064 H         1 <0>         0.0636
     52 H23        -1.4218   -6.8362    0.8882 H         1 <0>         0.0650
     53 H24         1.1989   -1.5617    0.4145 H         1 <0>         0.0601
     54 H25         0.8792   -3.2381    0.9200 H         1 <0>         0.0802
     55 H26         0.4848   -2.7173   -0.7357 H         1 <0>         0.0728
     56 H27        -4.0347    1.4945    1.7255 H         1 <0>         0.0938
     57 H28        -3.3850    2.9466    0.9270 H         1 <0>         0.1076
     58 H29        -4.6742    2.0017    0.1437 H         1 <0>         0.1073
@<TRIPOS>BOND
     1    1    2 1
     2    1   31 1
     3    1   32 1
     4    1   33 1
     5    2    3 2
     6    2    4 1
     7    4    8 1
     8    4    5 1
     9    4   27 1
    10    5    6 1
    11    5   34 1
    12    5   35 1
    13    6    7 1
    14    6   36 1
    15    6   37 1
    16    7   12 1
    17    7    8 1
    18    7   38 1
    19    8    9 1
    20    8   26 1
    21    9   10 1
    22    9   39 1
    23    9   40 1
    24   10   11 1
    25   10   41 1
    26   10   42 1
    27   11   23 1
    28   11   12 1
    29   11   43 1
    30   12   13 1
    31   12   44 1
    32   13   14 2
    33   13   45 1
    34   14   15 1
    35   14   25 1
    36   15   23 1
    37   15   16 2
    38   16   17 1
    39   16   46 1
    40   17   18 2
    41   17   19 1
    42   19   20 1
    43   19   22 1
    44   19   21 1
    45   21   22 1
    46   21   47 1
    47   21   48 1
    48   22   23 1
    49   22   49 1
    50   23   24 1
    51   24   50 1
    52   24   51 1
    53   24   52 1
    54   26   53 1
    55   26   54 1
    56   26   55 1
    57   27   28 1
    58   28   29 2
    59   28   30 1
    60   30   56 1
    61   30   57 1
    62   30   58 1
@<TRIPOS>MOLECULE
CHEMBL361245__2
   58    62     0     0     0
SMALL
USER_CHARGES

@<TRIPOS>ATOM
      1 C1          0.1565    1.0490    0.3400 C.3       1 <0>        -0.2052
      2 C2         -0.1736   -0.1686   -0.4844 C.2       1 <0>         0.3550
      3 O1          0.4860   -0.4339   -1.4605 O.2       1 <0>        -0.4312
      4 C3         -1.3256   -1.0540   -0.0911 C.3       1 <0>         0.0803
      5 C4         -1.8014   -1.8916   -1.3072 C.3       1 <0>        -0.1330
      6 C5         -1.7383   -3.3825   -0.8616 C.3       1 <0>        -0.1183
      7 C6         -1.8452   -3.2521    0.6639 C.3       1 <0>        -0.0745
      8 C7         -0.8584   -2.0969    0.9360 C.3       1 <0>        -0.0334
      9 C8         -0.9612   -1.6994    2.3904 C.3       1 <0>        -0.1052
     10 C9         -0.5831   -2.9220    3.2514 C.3       1 <0>        -0.1122
     11 C10        -1.5130   -4.0903    2.9763 C.3       1 <0>        -0.0607
     12 C11        -1.5707   -4.4680    1.4940 C.3       1 <0>        -0.0386
     13 C12        -0.3643   -5.2520    1.0644 C.2       1 <0>        -0.0891
     14 C13        -0.0129   -6.3015    1.8510 C.2       1 <0>        -0.0868
     15 C14        -0.9060   -6.5079    3.0151 C.2       1 <0>         0.0300
     16 C15        -1.3547   -7.7515    3.2615 C.2       1 <0>        -0.2208
     17 C16        -2.2196   -8.0626    4.3192 C.2       1 <0>         0.4182
     18 O2         -2.4627   -9.2185    4.5958 O.2       1 <0>        -0.4489
     19 C17        -2.8592   -6.9429    5.1013 C.3       1 <0>        -0.2064
     20 H1         -3.1724   -7.1901    6.1141 H         1 <0>         0.1327
     21 C18        -3.7225   -5.9547    4.3100 C.3       1 <0>        -0.1470
     22 C19        -2.3527   -5.5298    4.8368 C.3       1 <0>        -0.1193
     23 C20        -1.2253   -5.3030    3.8454 C.3       1 <0>         0.0067
     24 C21         0.0196   -5.0364    4.6903 C.3       1 <0>        -0.1455
     25 Cl1         1.3627   -7.3097    1.5188 Cl        1 <0>        -0.0471
     26 C22         0.5879   -2.4598    0.5929 C.3       1 <0>        -0.1597
     27 O3         -2.3996   -0.2819    0.4386 O.3       1 <0>        -0.3257
     28 C23        -2.9280    0.6570   -0.3621 C.2       1 <0>         0.4507
     29 O4         -2.5315    0.7757   -1.4972 O.2       1 <0>        -0.5000
     30 C24        -4.0156    1.5629    0.1549 C.3       1 <0>        -0.1484
     31 H2          1.0648    1.5128   -0.0446 H         1 <0>         0.0882
     32 H3         -0.6671    1.7607    0.2828 H         1 <0>         0.0871
     33 H4          0.3105    0.7542    1.3780 H         1 <0>         0.0961
     34 H5         -2.8244   -1.6250   -1.5675 H         1 <0>         0.0774
     35 H6         -1.1386   -1.7284   -2.1553 H         1 <0>         0.0936
     36 H7         -2.5980   -3.9294   -1.2553 H         1 <0>         0.0743
     37 H8         -0.8132   -3.8515   -1.1702 H         1 <0>         0.0786
     38 H9         -2.8692   -2.8995    0.8952 H         1 <0>         0.0879
     39 H10        -0.2730   -0.8806    2.6073 H         1 <0>         0.0695
     40 H11        -1.9803   -1.3929    2.6300 H         1 <0>         0.0800
     41 H12         0.4500   -3.1813    3.0555 H         1 <0>         0.0737
     42 H13        -0.6882   -2.6103    4.2970 H         1 <0>         0.0735
     43 H14        -2.5338   -3.7481    3.2445 H         1 <0>         0.0860
     44 H15        -2.4449   -5.1425    1.3788 H         1 <0>         0.0871
     45 H16         0.1908   -5.0292    0.1634 H         1 <0>         0.1394
     46 H17        -1.0320   -8.5507    2.6107 H         1 <0>         0.1375
     47 H18        -3.8226   -6.1247    3.2380 H         1 <0>         0.1007
     48 H19        -4.6039   -5.5493    4.8063 H         1 <0>         0.1114
     49 H20        -2.3515   -4.8436    5.6843 H         1 <0>         0.1246
     50 H21        -0.1510   -4.1661    5.3240 H         1 <0>         0.0737
     51 H22         0.2279   -5.9052    5.3146 H         1 <0>         0.0605
     52 H23         0.8699   -4.8476    4.0350 H         1 <0>         0.0659
     53 H24         1.2290   -1.5941    0.7593 H         1 <0>         0.0595
     54 H25         0.9165   -3.2826    1.2279 H         1 <0>         0.0785
     55 H26         0.6487   -2.7613   -0.4528 H         1 <0>         0.0702
     56 H27        -4.2390    1.3080    1.1909 H         1 <0>         0.0939
     57 H28        -3.6822    2.5992    0.0995 H         1 <0>         0.1073
     58 H29        -4.9124    1.4368   -0.4517 H         1 <0>         0.1072
@<TRIPOS>BOND
     1    1    2 1
     2    1   31 1
     3    1   32 1
     4    1   33 1
     5    2    3 2
     6    2    4 1
     7    4    8 1
     8    4    5 1
     9    4   27 1
    10    5    6 1
    11    5   34 1
    12    5   35 1
    13    6    7 1
    14    6   36 1
    15    6   37 1
    16    7   12 1
    17    7    8 1
    18    7   38 1
    19    8    9 1
    20    8   26 1
    21    9   10 1
    22    9   39 1
    23    9   40 1
    24   10   11 1
    25   10   41 1
    26   10   42 1
    27   11   23 1
    28   11   12 1
    29   11   43 1
    30   12   13 1
    31   12   44 1
    32   13   14 2
    33   13   45 1
    34   14   15 1
    35   14   25 1
    36   15   23 1
    37   15   16 2
    38   16   17 1
    39   16   46 1
    40   17   18 2
    41   17   19 1
    42   19   20 1
    43   19   22 1
    44   19   21 1
    45   21   22 1
    46   21   47 1
    47   21   48 1
    48   22   23 1
    49   22   49 1
    50   23   24 1
    51   24   50 1
    52   24   51 1
    53   24   52 1
    54   26   53 1
    55   26   54 1
    56   26   55 1
    57   27   28 1
    58   28   29 2
    59   28   30 1
    60   30   56 1
    61   30   57 1
    62   30   58 1
@<TRIPOS>MOLECULE
CHEMBL361245__3
   58    62     0     0     0
SMALL
USER_CHARGES

@<TRIPOS>ATOM
      1 C1          0.2413    0.9607    0.5241 C.3       1 <0>        -0.2048
      2 C2         -0.0952   -0.2042   -0.3709 C.2       1 <0>         0.3540
      3 O1          0.6025   -0.4543   -1.3243 O.2       1 <0>        -0.4305
      4 C3         -1.3023   -1.0568   -0.0761 C.3       1 <0>         0.0888
      5 C4         -1.7730   -1.7836   -1.3608 C.3       1 <0>        -0.1310
      6 C5         -1.7459   -3.3030   -1.0392 C.3       1 <0>        -0.1198
      7 C6         -1.8770   -3.3334    0.4873 C.3       1 <0>        -0.0737
      8 C7         -0.9388   -2.1663    0.9038 C.3       1 <0>        -0.0422
      9 C8         -1.1674   -1.8830    2.3737 C.3       1 <0>        -0.0998
     10 C9         -0.7455   -3.1371    3.1626 C.3       1 <0>        -0.1152
     11 C10        -1.5215   -4.3575    2.6872 C.3       1 <0>        -0.0663
     12 C11        -1.3505   -4.5743    1.1768 C.3       1 <0>        -0.0574
     13 C12        -2.0504   -5.8182    0.7336 C.2       1 <0>        -0.0853
     14 C13        -2.3327   -6.8255    1.5575 C.2       1 <0>        -0.0691
     15 C14        -1.9769   -6.7476    2.9846 C.2       1 <0>         0.0267
     16 C15        -2.4655   -7.6808    3.8233 C.2       1 <0>        -0.2271
     17 C16        -2.2768   -7.6511    5.2106 C.2       1 <0>         0.4167
     18 O2         -2.6564   -8.5780    5.8977 O.2       1 <0>        -0.4508
     19 C17        -1.6000   -6.4635    5.8480 C.3       1 <0>        -0.2029
     20 H1         -1.0725   -6.6652    6.7803 H         1 <0>         0.1324
     21 C18        -2.2936   -5.1059    5.7027 C.3       1 <0>        -0.1438
     22 C19        -1.0030   -5.4203    4.9074 C.3       1 <0>        -0.1202
     23 C20        -1.0795   -5.6236    3.4134 C.3       1 <0>         0.0067
     24 C21         0.3361   -5.9561    2.9375 C.3       1 <0>        -0.1518
     25 Cl1        -3.1272   -8.2421    0.9445 Cl        1 <0>        -0.0602
     26 C22         0.5191   -2.5801    0.6930 C.3       1 <0>        -0.1645
     27 O3         -2.3576   -0.2530    0.4552 O.3       1 <0>        -0.3273
     28 C23        -2.8191    0.7388   -0.3227 C.2       1 <0>         0.4513
     29 O4         -2.3891    0.8774   -1.4433 O.2       1 <0>        -0.5004
     30 C24        -3.8733    1.6793    0.2016 C.3       1 <0>        -0.1486
     31 H2          1.1827    1.4060    0.2024 H         1 <0>         0.0885
     32 H3         -0.5521    1.7057    0.4645 H         1 <0>         0.0873
     33 H4          0.3366    0.6129    1.5527 H         1 <0>         0.0966
     34 H5         -2.7861   -1.4733   -1.6164 H         1 <0>         0.0778
     35 H6         -1.0946   -1.5635   -2.1850 H         1 <0>         0.0934
     36 H7         -2.5879   -3.8116   -1.5087 H         1 <0>         0.0763
     37 H8         -0.8016   -3.7470   -1.3541 H         1 <0>         0.0774
     38 H9         -2.9076   -3.1409    0.7853 H         1 <0>         0.0908
     39 H10        -0.5633   -1.0304    2.6841 H         1 <0>         0.0710
     40 H11        -2.2224   -1.6731    2.5499 H         1 <0>         0.0798
     41 H12         0.3208   -3.3107    3.0176 H         1 <0>         0.0735
     42 H13        -0.9418   -2.9773    4.2228 H         1 <0>         0.0786
     43 H14        -2.5814   -4.1953    2.8832 H         1 <0>         0.0791
     44 H15        -0.2888   -4.6789    0.9533 H         1 <0>         0.1105
     45 H16        -2.3410   -5.9039   -0.3030 H         1 <0>         0.1318
     46 H17        -3.0338   -8.4973    3.4029 H         1 <0>         0.1405
     47 H18        -3.2358   -5.0778    5.1553 H         1 <0>         0.1013
     48 H19        -2.2119   -4.4070    6.5352 H         1 <0>         0.1117
     49 H20        -0.0952   -4.9242    5.2507 H         1 <0>         0.1245
     50 H21         1.0034   -5.1277    3.1756 H         1 <0>         0.0734
     51 H22         0.6850   -6.8592    3.4383 H         1 <0>         0.0640
     52 H23         0.3284   -6.1182    1.8597 H         1 <0>         0.0662
     53 H24         1.1726   -1.7394    0.9258 H         1 <0>         0.0601
     54 H25         0.7573   -3.4179    1.3483 H         1 <0>         0.0830
     55 H26         0.6658   -2.8777   -0.3452 H         1 <0>         0.0704
     56 H27        -4.1347    1.3996    1.2222 H         1 <0>         0.0939
     57 H28        -3.4880    2.6989    0.1917 H         1 <0>         0.1074
     58 H29        -4.7598    1.6198   -0.4298 H         1 <0>         0.1073
@<TRIPOS>BOND
     1    1    2 1
     2    1   31 1
     3    1   32 1
     4    1   33 1
     5    2    3 2
     6    2    4 1
     7    4    8 1
     8    4    5 1
     9    4   27 1
    10    5    6 1
    11    5   34 1
    12    5   35 1
    13    6    7 1
    14    6   36 1
    15    6   37 1
    16    7   12 1
    17    7    8 1
    18    7   38 1
    19    8    9 1
    20    8   26 1
    21    9   10 1
    22    9   39 1
    23    9   40 1
    24   10   11 1
    25   10   41 1
    26   10   42 1
    27   11   23 1
    28   11   12 1
    29   11   43 1
    30   12   13 1
    31   12   44 1
    32   13   14 2
    33   13   45 1
    34   14   15 1
    35   14   25 1
    36   15   23 1
    37   15   16 2
    38   16   17 1
    39   16   46 1
    40   17   18 2
    41   17   19 1
    42   19   20 1
    43   19   22 1
    44   19   21 1
    45   21   22 1
    46   21   47 1
    47   21   48 1
    48   22   23 1
    49   22   49 1
    50   23   24 1
    51   24   50 1
    52   24   51 1
    53   24   52 1
    54   26   53 1
    55   26   54 1
    56   26   55 1
    57   27   28 1
    58   28   29 2
    59   28   30 1
    60   30   56 1
    61   30   57 1
    62   30   58 1
@<TRIPOS>MOLECULE
CHEMBL361245__4
   58    62     0     0     0
SMALL
USER_CHARGES

@<TRIPOS>ATOM
      1 C1          0.3703    0.8914    1.1611 C.3       1 <0>        -0.2062
      2 C2          0.0675   -0.0729    0.0432 C.2       1 <0>         0.3530
      3 O1          0.8258   -0.1712   -0.8914 O.2       1 <0>        -0.4303
      4 C3         -1.1817   -0.9145    0.0918 C.3       1 <0>         0.0842
      5 C4         -1.5519   -1.3983   -1.3248 C.3       1 <0>        -0.1332
      6 C5         -1.5177   -2.9417   -1.2834 C.3       1 <0>        -0.1264
      7 C6         -1.7560   -3.2806    0.2176 C.3       1 <0>        -0.0701
      8 C7         -0.9329   -2.1829    0.9187 C.3       1 <0>        -0.0315
      9 C8         -1.2937   -2.0058    2.3756 C.3       1 <0>        -0.1055
     10 C9         -2.7971   -1.7910    2.5590 C.3       1 <0>        -0.1277
     11 C10        -3.5257   -3.0064    1.9784 C.3       1 <0>        -0.0627
     12 C11        -3.2476   -3.0735    0.4830 C.3       1 <0>        -0.0514
     13 C12        -4.0474   -4.1809   -0.1594 C.2       1 <0>        -0.0974
     14 C13        -5.3768   -4.1915    0.1060 C.2       1 <0>        -0.0837
     15 C14        -5.8142   -3.1036    1.0135 C.2       1 <0>         0.0334
     16 C15        -6.8798   -2.3622    0.6672 C.2       1 <0>        -0.2222
     17 C16        -7.3324   -1.2672    1.4161 C.2       1 <0>         0.4165
     18 O2         -8.3446   -0.6809    1.0887 O.2       1 <0>        -0.4501
     19 C17        -6.5573   -0.8199    2.6293 C.3       1 <0>        -0.2056
     20 H1         -7.1462   -0.3530    3.4188 H         1 <0>         0.1335
     21 C18        -5.1377   -0.2951    2.3985 C.3       1 <0>        -0.1521
     22 C19        -5.3644   -1.6736    3.0482 C.3       1 <0>        -0.1145
     23 C20        -5.0171   -2.9209    2.2670 C.3       1 <0>         0.0027
     24 C21        -5.3544   -4.1026    3.1784 C.3       1 <0>        -0.1434
     25 Cl1        -6.4665   -5.3696   -0.5561 Cl        1 <0>        -0.0472
     26 C22         0.5510   -2.5461    0.8347 C.3       1 <0>        -0.1579
     27 O3         -2.2593   -0.1634    0.6545 O.3       1 <0>        -0.3180
     28 C23        -2.6591    0.9268   -0.0189 C.2       1 <0>         0.4423
     29 O4         -2.1804    1.1789   -1.0992 O.2       1 <0>        -0.4951
     30 C24        -3.7051    1.8363    0.5725 C.3       1 <0>        -0.1654
     31 H2          1.3489    1.3423    0.9968 H         1 <0>         0.0879
     32 H3         -0.3902    1.6720    1.1836 H         1 <0>         0.0887
     33 H4          0.3711    0.3575    2.1113 H         1 <0>         0.0977
     34 H5         -2.5518   -1.0535   -1.5881 H         1 <0>         0.0769
     35 H6         -0.8256   -1.0276   -2.0481 H         1 <0>         0.0932
     36 H7         -2.3135   -3.3586   -1.9007 H         1 <0>         0.0763
     37 H8         -0.5457   -3.3117   -1.6095 H         1 <0>         0.0766
     38 H9         -1.4272   -4.2874    0.4753 H         1 <0>         0.1003
     39 H10        -0.9911   -2.8953    2.9282 H         1 <0>         0.0707
     40 H11        -0.7595   -1.1426    2.7725 H         1 <0>         0.0691
     41 H12        -3.0285   -1.6952    3.6199 H         1 <0>         0.0725
     42 H13        -3.1071   -0.8891    2.0311 H         1 <0>         0.1093
     43 H14        -3.1281   -3.9098    2.4409 H         1 <0>         0.0847
     44 H15        -3.5553   -2.1318    0.0283 H         1 <0>         0.0910
     45 H16        -3.5866   -4.9227   -0.7948 H         1 <0>         0.1394
     46 H17        -7.4145   -2.6229   -0.2342 H         1 <0>         0.1365
     47 H18        -4.7699   -0.2719    1.3727 H         1 <0>         0.1053
     48 H19        -4.7884    0.5123    3.0421 H         1 <0>         0.1150
     49 H20        -5.1674   -1.7431    4.1180 H         1 <0>         0.1254
     50 H21        -4.7755   -4.0283    4.0990 H         1 <0>         0.0713
     51 H22        -6.4181   -4.0864    3.4158 H         1 <0>         0.0613
     52 H23        -5.1098   -5.0351    2.6698 H         1 <0>         0.0635
     53 H24         1.1512   -1.7049    1.1816 H         1 <0>         0.0585
     54 H25         0.7482   -3.4160    1.4612 H         1 <0>         0.0747
     55 H26         0.8108   -2.7761   -0.1986 H         1 <0>         0.0694
     56 H27        -4.0157    1.4498    1.5432 H         1 <0>         0.0994
     57 H28        -3.2895    2.8363    0.6956 H         1 <0>         0.1095
     58 H29        -4.5668    1.8804   -0.0936 H         1 <0>         0.1077
@<TRIPOS>BOND
     1    1    2 1
     2    1   31 1
     3    1   32 1
     4    1   33 1
     5    2    3 2
     6    2    4 1
     7    4    8 1
     8    4    5 1
     9    4   27 1
    10    5    6 1
    11    5   34 1
    12    5   35 1
    13    6    7 1
    14    6   36 1
    15    6   37 1
    16    7   12 1
    17    7    8 1
    18    7   38 1
    19    8    9 1
    20    8   26 1
    21    9   10 1
    22    9   39 1
    23    9   40 1
    24   10   11 1
    25   10   41 1
    26   10   42 1
    27   11   23 1
    28   11   12 1
    29   11   43 1
    30   12   13 1
    31   12   44 1
    32   13   14 2
    33   13   45 1
    34   14   15 1
    35   14   25 1
    36   15   23 1
    37   15   16 2
    38   16   17 1
    39   16   46 1
    40   17   18 2
    41   17   19 1
    42   19   20 1
    43   19   22 1
    44   19   21 1
    45   21   22 1
    46   21   47 1
    47   21   48 1
    48   22   23 1
    49   22   49 1
    50   23   24 1
    51   24   50 1
    52   24   51 1
    53   24   52 1
    54   26   53 1
    55   26   54 1
    56   26   55 1
    57   27   28 1
    58   28   29 2
    59   28   30 1
    60   30   56 1
    61   30   57 1
    62   30   58 1
@<TRIPOS>MOLECULE
CHEMBL361245__5
   58    62     0     0     0
SMALL
USER_CHARGES

@<TRIPOS>ATOM
      1 C1          0.2122    0.9562    0.4157 C.3       1 <0>        -0.2059
      2 C2         -0.0454   -0.2947   -0.3843 C.2       1 <0>         0.3532
      3 O1          0.7075   -0.6073   -1.2753 O.2       1 <0>        -0.4326
      4 C3         -1.2461   -1.1579   -0.0716 C.3       1 <0>         0.0936
      5 C4         -1.6219   -1.9862   -1.3195 C.3       1 <0>        -0.1397
      6 C5         -1.5154   -3.4728   -0.9193 C.3       1 <0>        -0.1248
      7 C6         -1.6048   -3.4789    0.6286 C.3       1 <0>        -0.0645
      8 C7         -0.8897   -2.1754    1.0109 C.3       1 <0>        -0.0305
      9 C8         -1.1670   -1.7427    2.4273 C.3       1 <0>        -0.0986
     10 C9         -2.6523   -1.7457    2.7694 C.3       1 <0>        -0.1276
     11 C10        -3.2563   -3.1300    2.5149 C.3       1 <0>        -0.0563
     12 C11        -3.0591   -3.5216    1.0586 C.3       1 <0>        -0.0451
     13 C12        -3.9735   -2.8062    0.1253 C.2       1 <0>        -0.0753
     14 C13        -5.0590   -2.1407    0.5159 C.2       1 <0>        -0.0752
     15 C14        -5.4266   -2.1005    1.9414 C.2       1 <0>         0.0416
     16 C15        -6.3533   -1.2085    2.3400 C.2       1 <0>        -0.2363
     17 C16        -6.7879   -1.0817    3.6654 C.2       1 <0>         0.4191
     18 O2         -7.7100   -0.3419    3.9398 O.2       1 <0>        -0.4535
     19 C17        -6.0884   -1.8586    4.7532 C.3       1 <0>        -0.2144
     20 H1         -6.6890   -2.1166    5.6209 H         1 <0>         0.1312
     21 C18        -4.6109   -1.5109    4.9800 C.3       1 <0>        -0.1454
     22 C19        -4.9910   -2.8311    4.3245 C.3       1 <0>        -0.1126
     23 C20        -4.7497   -3.0794    2.8537 C.3       1 <0>         0.0042
     24 C21        -5.3512   -4.4612    2.5561 C.3       1 <0>        -0.1488
     25 Cl1        -6.0410   -1.3253   -0.6609 Cl        1 <0>        -0.0654
     26 C22         0.6298   -2.4379    0.9114 C.3       1 <0>        -0.1627
     27 O3         -2.3410   -0.3310    0.3163 O.3       1 <0>        -0.3185
     28 C23        -2.7433    0.5996   -0.5634 C.2       1 <0>         0.4527
     29 O4         -2.2456    0.6464   -1.6634 O.2       1 <0>        -0.5006
     30 C24        -3.8158    1.5861   -0.1790 C.3       1 <0>        -0.1513
     31 H2          1.1606    1.3961    0.1070 H         1 <0>         0.0882
     32 H3         -0.5929    1.6703    0.2428 H         1 <0>         0.0869
     33 H4          0.2554    0.7070    1.4759 H         1 <0>         0.0961
     34 H5         -2.6268   -1.7389   -1.6494 H         1 <0>         0.0805
     35 H6         -0.9126   -1.7710   -2.1243 H         1 <0>         0.0914
     36 H7         -2.3357   -4.0460   -1.3583 H         1 <0>         0.0756
     37 H8         -0.5637   -3.8905   -1.2572 H         1 <0>         0.0775
     38 H9         -1.0604   -4.3471    1.0450 H         1 <0>         0.0977
     39 H10        -0.6457   -2.4174    3.1131 H         1 <0>         0.0717
     40 H11        -0.7705   -0.7353    2.5796 H         1 <0>         0.0670
     41 H12        -2.7416   -1.5166    3.8409 H         1 <0>         0.0756
     42 H13        -3.1854   -0.9883    2.2081 H         1 <0>         0.0830
     43 H14        -2.7622   -3.8663    3.1607 H         1 <0>         0.0928
     44 H15        -3.3348   -4.5898    0.9862 H         1 <0>         0.0915
     45 H16        -3.7767   -2.8502   -0.9360 H         1 <0>         0.1307
     46 H17        -6.7837   -0.5508    1.5990 H         1 <0>         0.1382
     47 H18        -4.2038   -0.7110    4.3630 H         1 <0>         0.1081
     48 H19        -4.2455   -1.5390    6.0084 H         1 <0>         0.1106
     49 H20        -4.8847   -3.7257    4.9472 H         1 <0>         0.1218
     50 H21        -4.8521   -5.2138    3.1664 H         1 <0>         0.0709
     51 H22        -6.4159   -4.4519    2.7893 H         1 <0>         0.0633
     52 H23        -5.2124   -4.6984    1.5013 H         1 <0>         0.0640
     53 H24         1.1733   -1.5325    1.1816 H         1 <0>         0.0582
     54 H25         0.9047   -3.2436    1.5921 H         1 <0>         0.0735
     55 H26         0.8832   -2.7226   -0.1098 H         1 <0>         0.0701
     56 H27        -4.1409    1.3896    0.8427 H         1 <0>         0.0921
     57 H28        -3.4184    2.5990   -0.2453 H         1 <0>         0.1073
     58 H29        -4.6636    1.4833   -0.8562 H         1 <0>         0.1058
@<TRIPOS>BOND
     1    1    2 1
     2    1   31 1
     3    1   32 1
     4    1   33 1
     5    2    3 2
     6    2    4 1
     7    4    8 1
     8    4    5 1
     9    4   27 1
    10    5    6 1
    11    5   34 1
    12    5   35 1
    13    6    7 1
    14    6   36 1
    15    6   37 1
    16    7   12 1
    17    7    8 1
    18    7   38 1
    19    8    9 1
    20    8   26 1
    21    9   10 1
    22    9   39 1
    23    9   40 1
    24   10   11 1
    25   10   41 1
    26   10   42 1
    27   11   23 1
    28   11   12 1
    29   11   43 1
    30   12   13 1
    31   12   44 1
    32   13   14 2
    33   13   45 1
    34   14   15 1
    35   14   25 1
    36   15   23 1
    37   15   16 2
    38   16   17 1
    39   16   46 1
    40   17   18 2
    41   17   19 1
    42   19   20 1
    43   19   22 1
    44   19   21 1
    45   21   22 1
    46   21   47 1
    47   21   48 1
    48   22   23 1
    49   22   49 1
    50   23   24 1
    51   24   50 1
    52   24   51 1
    53   24   52 1
    54   26   53 1
    55   26   54 1
    56   26   55 1
    57   27   28 1
    58   28   29 2
    59   28   30 1
    60   30   56 1
    61   30   57 1
    62   30   58 1
@<TRIPOS>MOLECULE
CHEMBL361245__6
   58    62     0     0     0
SMALL
USER_CHARGES

@<TRIPOS>ATOM
      1 C1          0.2045    1.0146    0.3956 C.3       1 <0>        -0.2054
      2 C2         -0.0985   -0.2139   -0.4228 C.2       1 <0>         0.3539
      3 O1          0.6039   -0.5023   -1.3618 O.2       1 <0>        -0.4318
      4 C3         -1.2817   -1.0852   -0.0684 C.3       1 <0>         0.0903
      5 C4         -1.7242   -1.8816   -1.3158 C.3       1 <0>        -0.1330
      6 C5         -1.4296   -3.3664   -1.0090 C.3       1 <0>        -0.1278
      7 C6         -1.5236   -3.4480    0.5439 C.3       1 <0>        -0.0691
      8 C7         -0.8680   -2.1258    0.9712 C.3       1 <0>        -0.0255
      9 C8         -1.1572   -1.7550    2.4039 C.3       1 <0>        -0.1021
     10 C9         -2.6340   -1.8069    2.7576 C.3       1 <0>        -0.1036
     11 C10        -3.3032   -3.1002    2.3363 C.3       1 <0>        -0.0616
     12 C11        -3.0031   -3.4923    0.9082 C.3       1 <0>        -0.0361
     13 C12        -3.5612   -4.8464    0.5656 C.2       1 <0>        -0.0921
     14 C13        -4.0288   -5.7040    1.4643 C.2       1 <0>        -0.0654
     15 C14        -4.0374   -5.3703    2.8979 C.2       1 <0>         0.0246
     16 C15        -4.7998   -6.1066    3.7264 C.2       1 <0>        -0.2269
     17 C16        -4.9080   -5.8651    5.1016 C.2       1 <0>         0.4187
     18 O2         -5.4664   -6.6635    5.8241 O.2       1 <0>        -0.4499
     19 C17        -4.3370   -4.5907    5.6715 C.3       1 <0>        -0.2078
     20 H1         -4.0878   -4.6138    6.7308 H         1 <0>         0.1326
     21 C18        -4.8731   -3.2766    5.0922 C.3       1 <0>        -0.1449
     22 C19        -3.4623   -3.7494    4.7487 C.3       1 <0>        -0.1167
     23 C20        -3.1654   -4.2274    3.3407 C.3       1 <0>         0.0150
     24 C21        -1.7302   -4.7541    3.3622 C.3       1 <0>        -0.1513
     25 Cl1        -4.6384   -7.2429    0.9382 Cl        1 <0>        -0.0633
     26 C22         0.6598   -2.3118    0.8552 C.3       1 <0>        -0.1662
     27 O3         -2.3548   -0.2692    0.3977 O.3       1 <0>        -0.3237
     28 C23        -2.8197    0.6661   -0.4454 C.2       1 <0>         0.4491
     29 O4         -2.3713    0.7474   -1.5644 O.2       1 <0>        -0.4995
     30 C24        -3.9011    1.6148    0.0037 C.3       1 <0>        -0.1490
     31 H2          1.1268    1.4717    0.0370 H         1 <0>         0.0881
     32 H3         -0.6152    1.7266    0.2994 H         1 <0>         0.0868
     33 H4          0.3211    0.7341    1.4425 H         1 <0>         0.0964
     34 H5         -2.7889   -1.7371   -1.4935 H         1 <0>         0.0762
     35 H6         -1.1510   -1.5584   -2.1849 H         1 <0>         0.0921
     36 H7         -2.1844   -4.0053   -1.4717 H         1 <0>         0.0754
     37 H8         -0.4376   -3.6463   -1.3583 H         1 <0>         0.0782
     38 H9         -0.9710   -4.3143    0.9191 H         1 <0>         0.0997
     39 H10        -0.5841   -2.3981    3.0720 H         1 <0>         0.0758
     40 H11        -0.7983   -0.7273    2.5707 H         1 <0>         0.0655
     41 H12        -2.7400   -1.6897    3.8465 H         1 <0>         0.0720
     42 H13        -3.1601   -0.9624    2.3018 H         1 <0>         0.0812
     43 H14        -4.4008   -2.8571    2.3365 H         1 <0>         0.0649
     44 H15        -3.5224   -2.7617    0.2529 H         1 <0>         0.0940
     45 H16        -3.5883   -5.1403   -0.4765 H         1 <0>         0.1302
     46 H17        -5.3607   -6.9307    3.3105 H         1 <0>         0.1396
     47 H18        -5.6341   -3.3450    4.3151 H         1 <0>         0.1008
     48 H19        -4.9719   -2.4317    5.7736 H         1 <0>         0.1112
     49 H20        -2.6415   -3.2096    5.2218 H         1 <0>         0.1244
     50 H21        -1.0514   -3.9478    3.6400 H         1 <0>         0.0755
     51 H22        -1.6507   -5.5626    4.0889 H         1 <0>         0.0602
     52 H23        -1.4654   -5.1275    2.3730 H         1 <0>         0.0664
     53 H24         1.1617   -1.3926    1.1572 H         1 <0>         0.0603
     54 H25         0.9766   -3.1287    1.5037 H         1 <0>         0.0743
     55 H26         0.9200   -2.5456   -0.1771 H         1 <0>         0.0712
     56 H27        -4.1765    1.3902    1.0342 H         1 <0>         0.0938
     57 H28        -3.5347    2.6394   -0.0593 H         1 <0>         0.1071
     58 H29        -4.7742    1.5009   -0.6388 H         1 <0>         0.1069
@<TRIPOS>BOND
     1    1    2 1
     2    1   31 1
     3    1   32 1
     4    1   33 1
     5    2    3 2
     6    2    4 1
     7    4    8 1
     8    4    5 1
     9    4   27 1
    10    5    6 1
    11    5   34 1
    12    5   35 1
    13    6    7 1
    14    6   36 1
    15    6   37 1
    16    7   12 1
    17    7    8 1
    18    7   38 1
    19    8    9 1
    20    8   26 1
    21    9   10 1
    22    9   39 1
    23    9   40 1
    24   10   11 1
    25   10   41 1
    26   10   42 1
    27   11   23 1
    28   11   12 1
    29   11   43 1
    30   12   13 1
    31   12   44 1
    32   13   14 2
    33   13   45 1
    34   14   15 1
    35   14   25 1
    36   15   23 1
    37   15   16 2
    38   16   17 1
    39   16   46 1
    40   17   18 2
    41   17   19 1
    42   19   20 1
    43   19   22 1
    44   19   21 1
    45   21   22 1
    46   21   47 1
    47   21   48 1
    48   22   23 1
    49   22   49 1
    50   23   24 1
    51   24   50 1
    52   24   51 1
    53   24   52 1
    54   26   53 1
    55   26   54 1
    56   26   55 1
    57   27   28 1
    58   28   29 2
    59   28   30 1
    60   30   56 1
    61   30   57 1
    62   30   58 1
@<TRIPOS>MOLECULE
CHEMBL361245__7
   58    62     0     0     0
SMALL
USER_CHARGES

@<TRIPOS>ATOM
      1 C1          0.3207    1.0633    0.7863 C.3       1 <0>        -0.2085
      2 C2          0.0484   -0.0755   -0.1624 C.2       1 <0>         0.3543
      3 O1          0.8328   -0.3262   -1.0457 O.2       1 <0>        -0.4332
      4 C3         -1.2026   -0.9015   -0.0088 C.3       1 <0>         0.0788
      5 C4         -1.6372   -1.4623   -1.3756 C.3       1 <0>        -0.1302
      6 C5         -1.5633   -3.0025   -1.2644 C.3       1 <0>        -0.1169
      7 C6         -0.5622   -3.2320   -0.1170 C.3       1 <0>        -0.0726
      8 C7         -0.9224   -2.1297    0.8977 C.3       1 <0>        -0.0267
      9 C8         -2.2319   -2.4518    1.6194 C.3       1 <0>        -0.0997
     10 C9         -2.1963   -3.8474    2.2400 C.3       1 <0>        -0.1138
     11 C10        -2.0135   -4.8654    1.1121 C.3       1 <0>        -0.0672
     12 C11        -0.6525   -4.6181    0.4664 C.3       1 <0>        -0.0468
     13 C12        -0.3134   -5.6853   -0.5241 C.2       1 <0>        -0.0849
     14 C13        -0.8671   -6.8964   -0.5068 C.2       1 <0>        -0.0686
     15 C14        -1.8787   -7.2384    0.5080 C.2       1 <0>         0.0270
     16 C15        -2.5896   -8.3713    0.3549 C.2       1 <0>        -0.2274
     17 C16        -3.6373   -8.7495    1.2037 C.2       1 <0>         0.4168
     18 O2         -4.1741   -9.8303    1.0652 O.2       1 <0>        -0.4512
     19 C17        -4.0963   -7.8103    2.2907 C.3       1 <0>        -0.2030
     20 H1         -4.5300   -8.2840    3.1714 H         1 <0>         0.1324
     21 C18        -4.6767   -6.4638    1.8495 C.3       1 <0>        -0.1439
     22 C19        -3.2757   -6.5408    2.5008 C.3       1 <0>        -0.1194
     23 C20        -2.0478   -6.2906    1.6591 C.3       1 <0>         0.0060
     24 C21        -0.8367   -6.4597    2.5787 C.3       1 <0>        -0.1511
     25 Cl1        -0.3946   -8.0784   -1.6870 Cl        1 <0>        -0.0591
     26 C22         0.2270   -1.8636    1.8719 C.3       1 <0>        -0.1543
     27 O3         -2.2493   -0.1064    0.5519 O.3       1 <0>        -0.3276
     28 C23        -2.6497    0.9612   -0.1562 C.2       1 <0>         0.4512
     29 O4         -2.1770    1.1740   -1.2477 O.2       1 <0>        -0.5012
     30 C24        -3.6886    1.8945    0.4099 C.3       1 <0>        -0.1487
     31 H2          1.3025    1.4863    0.5739 H         1 <0>         0.0885
     32 H3         -0.4414    1.8322    0.6592 H         1 <0>         0.0865
     33 H4          0.2978    0.6951    1.8120 H         1 <0>         0.0993
     34 H5         -2.6582   -1.1525   -1.5988 H         1 <0>         0.0769
     35 H6         -0.9612   -1.1113   -2.1553 H         1 <0>         0.0900
     36 H7         -2.5393   -3.4163   -1.0109 H         1 <0>         0.0756
     37 H8         -1.1903   -3.4368   -2.1920 H         1 <0>         0.0762
     38 H9          0.4509   -3.0546   -0.4779 H         1 <0>         0.0856
     39 H10        -2.3960   -1.7156    2.4063 H         1 <0>         0.0772
     40 H11        -3.0545   -2.3994    0.9062 H         1 <0>         0.0718
     41 H12        -1.3626   -3.9183    2.9385 H         1 <0>         0.0725
     42 H13        -3.1328   -4.0416    2.7628 H         1 <0>         0.0790
     43 H14        -2.8047   -4.7383    0.3732 H         1 <0>         0.0852
     44 H15         0.0930   -4.6806    1.2591 H         1 <0>         0.0992
     45 H16         0.4148   -5.4635   -1.2901 H         1 <0>         0.1312
     46 H17        -2.3380   -9.0245   -0.4675 H         1 <0>         0.1402
     47 H18        -4.7308   -6.2653    0.7791 H         1 <0>         0.1008
     48 H19        -5.4854   -6.0438    2.4475 H         1 <0>         0.1116
     49 H20        -3.2028   -6.1775    3.5259 H         1 <0>         0.1246
     50 H21        -0.8954   -5.7377    3.3932 H         1 <0>         0.0746
     51 H22        -0.8298   -7.4698    2.9884 H         1 <0>         0.0632
     52 H23         0.0778   -6.2921    2.0097 H         1 <0>         0.0659
     53 H24        -0.0246   -1.0147    2.5076 H         1 <0>         0.0703
     54 H25         0.3899   -2.7457    2.4912 H         1 <0>         0.0749
     55 H26         1.1346   -1.6409    1.3108 H         1 <0>         0.0604
     56 H27        -3.9943    1.5431    1.3954 H         1 <0>         0.0940
     57 H28        -3.2687    2.8967    0.4957 H         1 <0>         0.1073
     58 H29        -4.5545    1.9187   -0.2518 H         1 <0>         0.1073
@<TRIPOS>BOND
     1    1    2 1
     2    1   31 1
     3    1   32 1
     4    1   33 1
     5    2    3 2
     6    2    4 1
     7    4    8 1
     8    4    5 1
     9    4   27 1
    10    5    6 1
    11    5   34 1
    12    5   35 1
    13    6    7 1
    14    6   36 1
    15    6   37 1
    16    7   12 1
    17    7    8 1
    18    7   38 1
    19    8    9 1
    20    8   26 1
    21    9   10 1
    22    9   39 1
    23    9   40 1
    24   10   11 1
    25   10   41 1
    26   10   42 1
    27   11   23 1
    28   11   12 1
    29   11   43 1
    30   12   13 1
    31   12   44 1
    32   13   14 2
    33   13   45 1
    34   14   15 1
    35   14   25 1
    36   15   23 1
    37   15   16 2
    38   16   17 1
    39   16   46 1
    40   17   18 2
    41   17   19 1
    42   19   20 1
    43   19   22 1
    44   19   21 1
    45   21   22 1
    46   21   47 1
    47   21   48 1
    48   22   23 1
    49   22   49 1
    50   23   24 1
    51   24   50 1
    52   24   51 1
    53   24   52 1
    54   26   53 1
    55   26   54 1
    56   26   55 1
    57   27   28 1
    58   28   29 2
    59   28   30 1
    60   30   56 1
    61   30   57 1
    62   30   58 1
@<TRIPOS>MOLECULE
CHEMBL186683
   56    59     0     0     0
SMALL
USER_CHARGES

@<TRIPOS>ATOM
      1 C1          0.6752    0.9357   -0.3085 C.3       1 <0>        -0.1544
      2 C2          0.4205   -0.5689   -0.1991 C.3       1 <0>        -0.1255
      3 C3         -1.0864   -0.8287   -0.1466 C.3       1 <0>        -0.1174
      4 C4         -1.3411   -2.3333   -0.0372 C.3       1 <0>        -0.1574
      5 C5         -2.8479   -2.5931    0.0153 C.3       1 <0>         0.1061
      6 C6         -3.1007   -4.0837    0.2498 C.3       1 <0>        -0.1078
      7 H1         -2.7861   -4.6483   -0.6279 H         1 <0>         0.0755
      8 C7         -2.3040   -4.5509    1.4697 C.3       1 <0>        -0.1255
      9 C8         -2.4603   -6.0611    1.6526 C.3       1 <0>        -0.1150
     10 C9         -3.9351   -6.3961    1.9074 C.3       1 <0>        -0.0841
     11 C10        -4.7555   -5.7909    0.7929 C.2       1 <0>        -0.0542
     12 C11        -5.5913   -6.5272    0.0857 C.2       1 <0>        -0.1213
     13 C12        -6.3925   -5.9969   -1.0234 C.2       1 <0>         0.1082
     14 C13        -6.2976   -4.6837   -1.4276 C.2       1 <0>        -0.2065
     15 C14        -7.1657   -4.4973   -2.4999 C.2       1 <0>         0.0672
     16 N1         -7.7729   -5.6312   -2.7477 N.2       1 <0>        -0.2813
     17 N2         -7.3167   -6.5945   -1.8400 N.pl3     1 <0>        -0.3231
     18 C15        -7.7311   -7.9316   -1.7776 C.ar      1 <0>         0.1505
     19 C16        -6.8271   -8.9238   -1.4220 C.ar      1 <0>        -0.1060
     20 C17        -7.2375  -10.2410   -1.3612 C.ar      1 <0>        -0.1303
     21 C18        -8.5497  -10.5726   -1.6544 C.ar      1 <0>         0.0957
     22 C19        -9.4529   -9.5845   -2.0092 C.ar      1 <0>        -0.1315
     23 C20        -9.0478   -8.2655   -2.0657 C.ar      1 <0>        -0.0843
     24 F1         -8.9492  -11.8618   -1.5947 F         1 <0>        -0.1338
     25 C21        -5.3613   -3.7438   -0.7027 C.3       1 <0>        -0.0644
     26 C22        -4.5914   -4.3155    0.4979 C.3       1 <0>        -0.0098
     27 C23        -4.9846   -3.5341    1.7532 C.3       1 <0>        -0.1502
     28 O1         -3.4428   -2.1980   -1.2225 O.3       1 <0>        -0.5451
     29 H2          1.7487    1.1208   -0.3458 H         1 <0>         0.0531
     30 H3          0.2087    1.3181   -1.2164 H         1 <0>         0.0540
     31 H4          0.2495    1.4403    0.5589 H         1 <0>         0.0535
     32 H5          0.8461   -1.0735   -1.0664 H         1 <0>         0.0593
     33 H6          0.8869   -0.9513    0.7089 H         1 <0>         0.0591
     34 H7         -1.5120   -0.3241    0.7208 H         1 <0>         0.0608
     35 H8         -1.5528   -0.4463   -1.0545 H         1 <0>         0.0680
     36 H9         -0.9154   -2.8379   -0.9045 H         1 <0>         0.0654
     37 H10        -0.8746   -2.7157    0.8708 H         1 <0>         0.0780
     38 H11        -3.2877   -2.0175    0.8298 H         1 <0>         0.1048
     39 H12        -1.2503   -4.3112    1.3268 H         1 <0>         0.0725
     40 H13        -2.6717   -4.0391    2.3591 H         1 <0>         0.0719
     41 H14        -2.1220   -6.5730    0.7517 H         1 <0>         0.0645
     42 H15        -1.8615   -6.3880    2.5026 H         1 <0>         0.0699
     43 H16        -4.0701   -7.4777    1.9179 H         1 <0>         0.0739
     44 H17        -4.2476   -5.9766    2.8637 H         1 <0>         0.0825
     45 H18        -5.6905   -7.5732    0.3355 H         1 <0>         0.1157
     46 H19        -7.3138   -3.5725   -3.0376 H         1 <0>         0.1896
     47 H20        -5.8036   -8.6656   -1.1936 H         1 <0>         0.1416
     48 H21        -6.5346  -11.0130   -1.0850 H         1 <0>         0.1465
     49 H22       -10.4757   -9.8452   -2.2379 H         1 <0>         0.1465
     50 H23        -9.7535   -7.4947   -2.3381 H         1 <0>         0.1442
     51 H24        -4.6322   -3.3739   -1.4237 H         1 <0>         0.1223
     52 H25        -5.9446   -2.8920   -0.3532 H         1 <0>         0.0692
     53 H26        -4.7879   -2.4734    1.5974 H         1 <0>         0.0651
     54 H27        -6.0455   -3.6810    1.9553 H         1 <0>         0.0564
     55 H28        -4.4003   -3.8912    2.6013 H         1 <0>         0.0629
     56 H29        -3.0289   -2.5936   -2.0017 H         1 <0>         0.3744
@<TRIPOS>BOND
     1    1    2 1
     2    1   29 1
     3    1   30 1
     4    1   31 1
     5    2    3 1
     6    2   32 1
     7    2   33 1
     8    3    4 1
     9    3   34 1
    10    3   35 1
    11    4    5 1
    12    4   36 1
    13    4   37 1
    14    5    6 1
    15    5   28 1
    16    5   38 1
    17    6    7 1
    18    6   26 1
    19    6    8 1
    20    8    9 1
    21    8   39 1
    22    8   40 1
    23    9   10 1
    24    9   41 1
    25    9   42 1
    26   10   11 1
    27   10   43 1
    28   10   44 1
    29   11   26 1
    30   11   12 2
    31   12   13 1
    32   12   45 1
    33   13   17 1
    34   13   14 2
    35   14   15 1
    36   14   25 1
    37   15   16 2
    38   15   46 1
    39   16   17 1
    40   17   18 1
    41   18   23 ar
    42   18   19 ar
    43   19   20 ar
    44   19   47 1
    45   20   21 ar
    46   20   48 1
    47   21   22 ar
    48   21   24 1
    49   22   23 ar
    50   22   49 1
    51   23   50 1
    52   25   26 1
    53   25   51 1
    54   25   52 1
    55   26   27 1
    56   27   53 1
    57   27   54 1
    58   27   55 1
    59   28   56 1
@<TRIPOS>MOLECULE
CHEMBL186683__1
   56    59     0     0     0
SMALL
USER_CHARGES

@<TRIPOS>ATOM
      1 C1          0.2601    1.3136   -0.0961 C.3       1 <0>        -0.1541
      2 C2          0.2106   -0.2148   -0.1459 C.3       1 <0>        -0.1256
      3 C3         -1.2389   -0.6830   -0.0023 C.3       1 <0>        -0.1164
      4 C4         -1.2885   -2.2114   -0.0522 C.3       1 <0>        -0.1529
      5 C5         -2.7380   -2.6796    0.0914 C.3       1 <0>         0.1071
      6 C6         -2.8030   -4.1983   -0.0829 C.3       1 <0>        -0.1100
      7 H1         -2.3215   -4.4776   -1.0200 H         1 <0>         0.0798
      8 C7         -2.0823   -4.8773    1.0836 C.3       1 <0>        -0.1288
      9 C8         -2.0443   -6.3909    0.8682 C.3       1 <0>        -0.1137
     10 C9         -3.4763   -6.9385    0.8275 C.3       1 <0>        -0.0834
     11 C10        -4.2508   -6.1570   -0.2073 C.2       1 <0>        -0.0481
     12 C11        -4.8958   -6.7701   -1.1814 C.2       1 <0>        -0.1271
     13 C12        -5.6415   -6.0597   -2.2266 C.2       1 <0>         0.1195
     14 C13        -5.6890   -4.6843   -2.2803 C.2       1 <0>        -0.2169
     15 C14        -6.4564   -4.3208   -3.3836 C.2       1 <0>         0.0698
     16 N1         -6.8693   -5.4101   -3.9824 N.2       1 <0>        -0.2802
     17 N2         -6.3813   -6.5210   -3.2839 N.pl3     1 <0>        -0.3218
     18 C15        -6.6089   -7.8651   -3.6081 C.ar      1 <0>         0.1486
     19 C16        -5.6176   -8.8115   -3.3849 C.ar      1 <0>        -0.1050
     20 C17        -5.8438  -10.1357   -3.7052 C.ar      1 <0>        -0.1303
     21 C18        -7.0583  -10.5199   -4.2486 C.ar      1 <0>         0.0971
     22 C19        -8.0482   -9.5775   -4.4720 C.ar      1 <0>        -0.1317
     23 C20        -7.8280   -8.2533   -4.1478 C.ar      1 <0>        -0.0831
     24 F1         -7.2775  -11.8157   -4.5617 F         1 <0>        -0.1334
     25 C21        -4.9754   -3.8695   -1.2257 C.3       1 <0>        -0.0336
     26 C22        -4.2645   -4.6468   -0.1069 C.3       1 <0>        -0.0123
     27 C23        -4.8936   -4.2661    1.2348 C.3       1 <0>        -0.1517
     28 O1         -3.2260   -2.3277    1.3876 O.3       1 <0>        -0.5515
     29 H2          1.2928    1.6472   -0.1984 H         1 <0>         0.0529
     30 H3         -0.3365    1.7233   -0.9111 H         1 <0>         0.0535
     31 H4         -0.1406    1.6592    0.8569 H         1 <0>         0.0540
     32 H5          0.6113   -0.5604   -1.0989 H         1 <0>         0.0588
     33 H6          0.8072   -0.6244    0.6691 H         1 <0>         0.0591
     34 H7         -1.6397   -0.3374    0.9506 H         1 <0>         0.0687
     35 H8         -1.8355   -0.2734   -0.8174 H         1 <0>         0.0603
     36 H9         -0.8878   -2.5570   -1.0051 H         1 <0>         0.0695
     37 H10        -0.6919   -2.6211    0.7629 H         1 <0>         0.0669
     38 H11        -3.3520   -2.1998   -0.6707 H         1 <0>         0.1044
     39 H12        -1.0634   -4.4960    1.1502 H         1 <0>         0.0689
     40 H13        -2.6100   -4.6575    2.0117 H         1 <0>         0.0747
     41 H14        -1.5443   -6.6111   -0.0750 H         1 <0>         0.0648
     42 H15        -1.4989   -6.8607    1.6866 H         1 <0>         0.0702
     43 H16        -3.4589   -7.9936    0.5545 H         1 <0>         0.0743
     44 H17        -3.9438   -6.8186    1.8048 H         1 <0>         0.0836
     45 H18        -4.8735   -7.8495   -1.2111 H         1 <0>         0.1172
     46 H19        -6.6747   -3.3097   -3.6939 H         1 <0>         0.1903
     47 H20        -4.6702   -8.5123   -2.9614 H         1 <0>         0.1419
     48 H21        -5.0730  -10.8720   -3.5320 H         1 <0>         0.1470
     49 H22        -8.9945   -9.8790   -4.8963 H         1 <0>         0.1469
     50 H23        -8.6018   -7.5194   -4.3180 H         1 <0>         0.1445
     51 H24        -4.2332   -3.2480   -1.7266 H         1 <0>         0.0728
     52 H25        -5.7059   -3.2064   -0.7623 H         1 <0>         0.0764
     53 H26        -4.9716   -3.1812    1.3047 H         1 <0>         0.0932
     54 H27        -5.8876   -4.7074    1.3082 H         1 <0>         0.0452
     55 H28        -4.2698   -4.6387    2.0473 H         1 <0>         0.0596
     56 H29        -2.7258   -2.7202    2.1162 H         1 <0>         0.3699
@<TRIPOS>BOND
     1    1    2 1
     2    1   29 1
     3    1   30 1
     4    1   31 1
     5    2    3 1
     6    2   32 1
     7    2   33 1
     8    3    4 1
     9    3   34 1
    10    3   35 1
    11    4    5 1
    12    4   36 1
    13    4   37 1
    14    5    6 1
    15    5   28 1
    16    5   38 1
    17    6    7 1
    18    6   26 1
    19    6    8 1
    20    8    9 1
    21    8   39 1
    22    8   40 1
    23    9   10 1
    24    9   41 1
    25    9   42 1
    26   10   11 1
    27   10   43 1
    28   10   44 1
    29   11   26 1
    30   11   12 2
    31   12   13 1
    32   12   45 1
    33   13   17 1
    34   13   14 2
    35   14   15 1
    36   14   25 1
    37   15   16 2
    38   15   46 1
    39   16   17 1
    40   17   18 1
    41   18   23 ar
    42   18   19 ar
    43   19   20 ar
    44   19   47 1
    45   20   21 ar
    46   20   48 1
    47   21   22 ar
    48   21   24 1
    49   22   23 ar
    50   22   49 1
    51   23   50 1
    52   25   26 1
    53   25   51 1
    54   25   52 1
    55   26   27 1
    56   27   53 1
    57   27   54 1
    58   27   55 1
    59   28   56 1
@<TRIPOS>MOLECULE
CHEMBL292970
   55    58     0     0     0
SMALL
USER_CHARGES

@<TRIPOS>ATOM
      1 C1         -0.0187    1.5258    0.0104 C.3       1 <0>        -0.1517
      2 C2          0.0021   -0.0041    0.0020 C.3       1 <0>         0.0546
      3 O1          0.6709   -0.4649   -1.1737 O.3       1 <0>        -0.3197
      4 C3          0.7768   -1.8100   -1.3361 C.ar      1 <0>         0.1194
      5 C4          0.2427   -2.6687   -0.3864 C.ar      1 <0>        -0.2077
      6 C5          0.3511   -4.0357   -0.5541 C.ar      1 <0>        -0.0765
      7 C6          0.9917   -4.5482   -1.6671 C.ar      1 <0>        -0.1051
      8 C7          1.5253   -3.6944   -2.6148 C.ar      1 <0>        -0.0638
      9 C8          1.4140   -2.3268   -2.4548 C.ar      1 <0>        -0.1510
     10 C9          1.1090   -6.0397   -1.8472 C.3       1 <0>        -0.1019
     11 C10        -0.1038   -6.5566   -2.6235 C.3       1 <0>         0.1530
     12 C11        -0.0569   -8.0609   -2.6780 C.ar      1 <0>        -0.0787
     13 C12        -0.6625   -8.8272   -1.7084 C.ar      1 <0>        -0.1671
     14 C13        -0.5982  -10.2145   -1.7815 C.ar      1 <0>         0.2941
     15 C14         0.0754  -10.8315   -2.8295 C.ar      1 <0>        -0.2579
     16 C15         0.6831  -10.0678   -3.8060 C.ar      1 <0>        -0.0334
     17 C16         0.6164   -8.6824   -3.7345 C.ar      1 <0>        -0.1502
     18 C17         1.2365   -7.8157   -4.7636 C.ar      1 <0>        -0.0948
     19 C18         0.8450   -6.4712   -4.8162 C.ar      1 <0>         0.1498
     20 C19         1.4095   -5.6330   -5.7615 C.ar      1 <0>        -0.1778
     21 C20         2.3509   -6.1238   -6.6486 C.ar      1 <0>        -0.0746
     22 C21         2.7368   -7.4504   -6.6024 C.ar      1 <0>        -0.2297
     23 C22         2.1827   -8.3047   -5.6594 C.ar      1 <0>         0.1447
     24 O2          2.5605   -9.6089   -5.6117 O.3       1 <0>        -0.3003
     25 C23         3.5366  -10.0369   -6.5636 C.3       1 <0>         0.0232
     26 O3         -0.0871   -6.0128   -3.9434 O.3       1 <0>        -0.3028
     27 N1         -1.2136  -10.9916   -0.7977 N.2       1 <0>        -1.0958
     28 S1         -1.1395  -12.6439   -0.8809 S.o2      1 <0>         2.5256
     29 O4         -1.8428  -12.9790   -2.0694 O.2       1 <0>        -1.0286
     30 O5          0.2409  -12.9522   -0.7447 O.2       1 <0>        -1.0287
     31 C24        -2.0560  -13.2255    0.5725 C.3       1 <0>        -0.6376
     32 H1          1.0039    1.9031    0.0027 H         1 <0>         0.0649
     33 H2         -0.5459    1.8868   -0.8726 H         1 <0>         0.0654
     34 H3         -0.5289    1.8773    0.9072 H         1 <0>         0.0764
     35 H4          0.5293   -0.3651    0.8851 H         1 <0>         0.0602
     36 H5         -1.0205   -0.3814    0.0098 H         1 <0>         0.0610
     37 H6         -0.2572   -2.2689    0.4835 H         1 <0>         0.1240
     38 H7         -0.0645   -4.7046    0.1850 H         1 <0>         0.1262
     39 H8          2.0255   -4.0972   -3.4831 H         1 <0>         0.1281
     40 H9          1.8270   -1.6604   -3.1976 H         1 <0>         0.1266
     41 H10         2.0194   -6.2683   -2.4013 H         1 <0>         0.0779
     42 H11         1.1475   -6.5218   -0.8703 H         1 <0>         0.0915
     43 H12        -1.0167   -6.2446   -2.1162 H         1 <0>         0.1184
     44 H13        -1.1863   -8.3521   -0.8921 H         1 <0>         0.1155
     45 H14         0.1237  -11.9093   -2.8796 H         1 <0>         0.1039
     46 H15         1.2070  -10.5450   -4.6210 H         1 <0>         0.1249
     47 H16         1.1148   -4.5950   -5.8070 H         1 <0>         0.1264
     48 H17         2.7880   -5.4647   -7.3840 H         1 <0>         0.1234
     49 H18         3.4710   -7.8228   -7.3015 H         1 <0>         0.1237
     50 H19         3.7478  -11.0960   -6.4163 H         1 <0>         0.0968
     51 H20         3.1540   -9.8795   -7.5721 H         1 <0>         0.0521
     52 H21         4.4524   -9.4615   -6.4286 H         1 <0>         0.0521
     53 H22        -3.0834  -12.8649    0.5223 H         1 <0>         0.1152
     54 H23        -2.0539  -14.3153    0.5912 H         1 <0>         0.1013
     55 H24        -1.5814  -12.8457    1.4772 H         1 <0>         0.1151
@<TRIPOS>BOND
     1    1    2 1
     2    1   32 1
     3    1   33 1
     4    1   34 1
     5    2    3 1
     6    2   35 1
     7    2   36 1
     8    3    4 1
     9    4    9 ar
    10    4    5 ar
    11    5    6 ar
    12    5   37 1
    13    6    7 ar
    14    6   38 1
    15    7    8 ar
    16    7   10 1
    17    8    9 ar
    18    8   39 1
    19    9   40 1
    20   10   11 1
    21   10   41 1
    22   10   42 1
    23   11   26 1
    24   11   12 1
    25   11   43 1
    26   12   17 ar
    27   12   13 ar
    28   13   14 ar
    29   13   44 1
    30   14   15 ar
    31   14   27 1
    32   15   16 ar
    33   15   45 1
    34   16   17 ar
    35   16   46 1
    36   17   18 1
    37   18   23 ar
    38   18   19 ar
    39   19   20 ar
    40   19   26 1
    41   20   21 ar
    42   20   47 1
    43   21   22 ar
    44   21   48 1
    45   22   23 ar
    46   22   49 1
    47   23   24 1
    48   24   25 1
    49   25   50 1
    50   25   51 1
    51   25   52 1
    52   27   28 1
    53   28   29 2
    54   28   30 2
    55   28   31 1
    56   31   53 1
    57   31   54 1
    58   31   55 1
@<TRIPOS>MOLECULE
CHEMBL292970__1
   55    58     0     0     0
SMALL
USER_CHARGES

@<TRIPOS>ATOM
      1 C1         -0.0187    1.5258    0.0104 C.3       1 <0>        -0.1518
      2 C2          0.0021   -0.0041    0.0020 C.3       1 <0>         0.0548
      3 O1          0.6709   -0.4649   -1.1737 O.3       1 <0>        -0.3197
      4 C3          0.7768   -1.8100   -1.3361 C.ar      1 <0>         0.1193
      5 C4          0.2427   -2.6687   -0.3864 C.ar      1 <0>        -0.2072
      6 C5          0.3511   -4.0357   -0.5541 C.ar      1 <0>        -0.0634
      7 C6          0.9917   -4.5482   -1.6671 C.ar      1 <0>        -0.1054
      8 C7          1.5253   -3.6944   -2.6148 C.ar      1 <0>        -0.0766
      9 C8          1.4140   -2.3268   -2.4548 C.ar      1 <0>        -0.1514
     10 C9          1.1090   -6.0397   -1.8472 C.3       1 <0>        -0.1018
     11 C10        -0.1038   -6.5566   -2.6235 C.3       1 <0>         0.1527
     12 C11         0.0846   -8.0198   -2.9263 C.ar      1 <0>        -0.0785
     13 C12         0.6935   -8.4329   -4.0894 C.ar      1 <0>        -0.1668
     14 C13         0.8589   -9.7909   -4.3399 C.ar      1 <0>         0.2944
     15 C14         0.4127  -10.7336   -3.4207 C.ar      1 <0>        -0.2581
     16 C15        -0.2006  -10.3248   -2.2533 C.ar      1 <0>        -0.0332
     17 C16        -0.3688   -8.9688   -2.0046 C.ar      1 <0>        -0.1511
     18 C17        -1.0344   -8.4759   -0.7763 C.ar      1 <0>        -0.0943
     19 C18        -1.4699   -7.1442   -0.7516 C.ar      1 <0>         0.1501
     20 C19        -2.0897   -6.6503    0.3828 C.ar      1 <0>        -0.1783
     21 C20        -2.2791   -7.4698    1.4812 C.ar      1 <0>        -0.0751
     22 C21        -1.8536   -8.7849    1.4596 C.ar      1 <0>        -0.2297
     23 C22        -1.2288   -9.2965    0.3308 C.ar      1 <0>         0.1449
     24 O2         -0.8101  -10.5888    0.3068 O.3       1 <0>        -0.3001
     25 C23        -1.0449  -11.3688    1.4809 C.3       1 <0>         0.0232
     26 O3         -1.2831   -6.3605   -1.8432 O.3       1 <0>        -0.3030
     27 N1          1.4758  -10.2097   -5.5209 N.2       1 <0>        -1.0955
     28 S1          1.6747  -11.8256   -5.8233 S.o2      1 <0>         2.5257
     29 O4          2.5509  -12.2806   -4.8012 O.2       1 <0>        -1.0288
     30 O5          0.3543  -12.3403   -5.9275 O.2       1 <0>        -1.0287
     31 C24         2.5032  -11.8998   -7.4353 C.3       1 <0>        -0.6376
     32 H1          1.0039    1.9031    0.0027 H         1 <0>         0.0649
     33 H2         -0.5459    1.8868   -0.8726 H         1 <0>         0.0655
     34 H3         -0.5289    1.8773    0.9072 H         1 <0>         0.0763
     35 H4          0.5293   -0.3651    0.8851 H         1 <0>         0.0599
     36 H5         -1.0205   -0.3814    0.0098 H         1 <0>         0.0610
     37 H6         -0.2572   -2.2689    0.4835 H         1 <0>         0.1232
     38 H7         -0.0645   -4.7046    0.1850 H         1 <0>         0.1236
     39 H8          2.0255   -4.0972   -3.4831 H         1 <0>         0.1310
     40 H9          1.8270   -1.6604   -3.1976 H         1 <0>         0.1274
     41 H10         2.0194   -6.2683   -2.4013 H         1 <0>         0.0923
     42 H11         1.1475   -6.5218   -0.8703 H         1 <0>         0.0771
     43 H12        -0.1947   -6.0057   -3.5596 H         1 <0>         0.1193
     44 H13         1.0419   -7.7041   -4.8061 H         1 <0>         0.1161
     45 H14         0.5456  -11.7866   -3.6202 H         1 <0>         0.1039
     46 H15        -0.5480  -11.0554   -1.5378 H         1 <0>         0.1248
     47 H16        -2.4255   -5.6242    0.4108 H         1 <0>         0.1251
     48 H17        -2.7634   -7.0785    2.3636 H         1 <0>         0.1229
     49 H18        -2.0079   -9.4155    2.3227 H         1 <0>         0.1237
     50 H19        -0.6631  -12.3783    1.3288 H         1 <0>         0.0970
     51 H20        -0.5350  -10.9115    2.3289 H         1 <0>         0.0520
     52 H21        -2.1156  -11.4115    1.6807 H         1 <0>         0.0521
     53 H22         3.4594  -11.3799   -7.3766 H         1 <0>         0.1152
     54 H23         2.6721  -12.9411   -7.7095 H         1 <0>         0.1013
     55 H24         1.8760  -11.4229   -8.1885 H         1 <0>         0.1153
@<TRIPOS>BOND
     1    1    2 1
     2    1   32 1
     3    1   33 1
     4    1   34 1
     5    2    3 1
     6    2   35 1
     7    2   36 1
     8    3    4 1
     9    4    9 ar
    10    4    5 ar
    11    5    6 ar
    12    5   37 1
    13    6    7 ar
    14    6   38 1
    15    7    8 ar
    16    7   10 1
    17    8    9 ar
    18    8   39 1
    19    9   40 1
    20   10   11 1
    21   10   41 1
    22   10   42 1
    23   11   26 1
    24   11   12 1
    25   11   43 1
    26   12   17 ar
    27   12   13 ar
    28   13   14 ar
    29   13   44 1
    30   14   15 ar
    31   14   27 1
    32   15   16 ar
    33   15   45 1
    34   16   17 ar
    35   16   46 1
    36   17   18 1
    37   18   23 ar
    38   18   19 ar
    39   19   20 ar
    40   19   26 1
    41   20   21 ar
    42   20   47 1
    43   21   22 ar
    44   21   48 1
    45   22   23 ar
    46   22   49 1
    47   23   24 1
    48   24   25 1
    49   25   50 1
    50   25   51 1
    51   25   52 1
    52   27   28 1
    53   28   29 2
    54   28   30 2
    55   28   31 1
    56   31   53 1
    57   31   54 1
    58   31   55 1
@<TRIPOS>MOLECULE
CHEMBL1083487
   56    60     0     0     0
SMALL
USER_CHARGES

@<TRIPOS>ATOM
      1 C1         -0.2967    1.5925   -0.8178 C.3       1 <0>         0.0664
      2 N1         -0.5231    0.1655   -0.5756 N.pl3     1 <0>        -0.9394
      3 C2         -0.7995   -0.2884    0.7161 C.ar      1 <0>         0.1639
      4 C3         -0.4628   -1.5845    1.0855 C.ar      1 <0>        -0.1577
      5 C4         -0.7370   -2.0299    2.3636 C.ar      1 <0>        -0.0817
      6 C5         -1.3465   -1.1873    3.2752 C.ar      1 <0>        -0.1385
      7 C6         -1.6830    0.1035    2.9109 C.ar      1 <0>        -0.0897
      8 C7         -1.4064    0.5572    1.6361 C.ar      1 <0>        -0.1450
      9 S1         -0.4514   -0.9095   -1.8332 S.o2      1 <0>         2.6865
     10 O1         -1.1886   -2.0556   -1.4304 O.2       1 <0>        -0.9326
     11 O2         -0.7636   -0.1781   -3.0109 O.2       1 <0>        -0.9363
     12 C8          1.2281   -1.4195   -1.9875 C.ar      1 <0>        -0.6854
     13 C9          2.1249   -0.6347   -2.6902 C.ar      1 <0>         0.0163
     14 C10         3.4415   -1.0291   -2.8138 C.ar      1 <0>        -0.1259
     15 C11         3.8671   -2.2204   -2.2291 C.ar      1 <0>         0.0771
     16 C12         2.9597   -3.0068   -1.5226 C.ar      1 <0>        -0.1951
     17 C13         1.6463   -2.6000   -1.4009 C.ar      1 <0>         0.0287
     18 C14         3.4126   -4.2963   -0.8877 C.3       1 <0>         0.5115
     19 F1          2.3747   -4.8240   -0.1122 F         1 <0>        -0.1722
     20 F2          3.7596   -5.2116   -1.8873 F         1 <0>        -0.1699
     21 F3          4.5240   -4.0505   -0.0743 F         1 <0>        -0.1663
     22 C15         5.2816   -2.6499   -2.3591 C.ar      1 <0>        -0.1274
     23 C16         6.3082   -1.8226   -1.8876 C.ar      1 <0>        -0.0359
     24 C17         7.6135   -2.2009   -1.9990 C.ar      1 <0>        -0.1375
     25 C18         7.9411   -3.4212   -2.5863 C.ar      1 <0>         0.1420
     26 C19         6.9178   -4.2633   -3.0644 C.ar      1 <0>        -0.1728
     27 C20         5.5819   -3.8711   -2.9415 C.ar      1 <0>        -0.0146
     28 C21         7.5799   -5.4437   -3.6124 C.2       1 <0>         0.0963
     29 N2          8.8642   -5.2869   -3.4597 N.2       1 <0>        -0.2428
     30 N3          9.1286   -4.0633   -2.8362 N.pl3     1 <0>        -0.3552
     31 C22        10.4011   -3.5715   -2.5181 C.ar      1 <0>         0.1536
     32 C23        10.6584   -2.2088   -2.5921 C.ar      1 <0>        -0.1092
     33 C24        11.9134   -1.7260   -2.2777 C.ar      1 <0>        -0.1275
     34 C25        12.9152   -2.5997   -1.8892 C.ar      1 <0>         0.0957
     35 C26        12.6608   -3.9589   -1.8147 C.ar      1 <0>        -0.1293
     36 C27        11.4055   -4.4453   -2.1228 C.ar      1 <0>        -0.0867
     37 F4         14.1426   -2.1254   -1.5828 F         1 <0>        -0.1331
     38 H1          0.7646    1.8156   -0.7088 H         1 <0>         0.0686
     39 H2         -0.6192    1.8452   -1.8279 H         1 <0>         0.0944
     40 H3         -0.8671    2.1783   -0.0970 H         1 <0>         0.0909
     41 H4          0.0125   -2.2432    0.3738 H         1 <0>         0.1227
     42 H5         -0.4755   -3.0374    2.6515 H         1 <0>         0.1311
     43 H6         -1.5605   -1.5384    4.2739 H         1 <0>         0.1270
     44 H7         -2.1589    0.7589    3.6252 H         1 <0>         0.1292
     45 H8         -1.6654    1.5669    1.3535 H         1 <0>         0.1309
     46 H9          1.7939    0.2881   -3.1432 H         1 <0>         0.1526
     47 H10         4.1407   -0.4159   -3.3628 H         1 <0>         0.1516
     48 H11         0.9429   -3.2068   -0.8499 H         1 <0>         0.1590
     49 H12         6.0637   -0.8748   -1.4313 H         1 <0>         0.1381
     50 H13         8.3954   -1.5528   -1.6314 H         1 <0>         0.1358
     51 H14         4.7907   -4.5121   -3.3016 H         1 <0>         0.1510
     52 H15         7.0920   -6.2951   -4.0635 H         1 <0>         0.2074
     53 H16         9.8776   -1.5272   -2.8957 H         1 <0>         0.1413
     54 H17        12.1139   -0.6663   -2.3351 H         1 <0>         0.1475
     55 H18        13.4434   -4.6386   -1.5116 H         1 <0>         0.1471
     56 H19        11.2063   -5.5049   -2.0607 H         1 <0>         0.1439
@<TRIPOS>BOND
     1    1    2 1
     2    1   38 1
     3    1   39 1
     4    1   40 1
     5    2    3 1
     6    2    9 1
     7    3    8 ar
     8    3    4 ar
     9    4    5 ar
    10    4   41 1
    11    5    6 ar
    12    5   42 1
    13    6    7 ar
    14    6   43 1
    15    7    8 ar
    16    7   44 1
    17    8   45 1
    18    9   10 2
    19    9   11 2
    20    9   12 1
    21   12   17 ar
    22   12   13 ar
    23   13   14 ar
    24   13   46 1
    25   14   15 ar
    26   14   47 1
    27   15   16 ar
    28   15   22 1
    29   16   17 ar
    30   16   18 1
    31   17   48 1
    32   18   19 1
    33   18   20 1
    34   18   21 1
    35   22   27 ar
    36   22   23 ar
    37   23   24 ar
    38   23   49 1
    39   24   25 ar
    40   24   50 1
    41   25   30 1
    42   25   26 ar
    43   26   27 ar
    44   26   28 1
    45   27   51 1
    46   28   29 2
    47   28   52 1
    48   29   30 1
    49   30   31 1
    50   31   36 ar
    51   31   32 ar
    52   32   33 ar
    53   32   53 1
    54   33   34 ar
    55   33   54 1
    56   34   35 ar
    57   34   37 1
    58   35   36 ar
    59   35   55 1
    60   36   56 1
@<TRIPOS>MOLECULE
CHEMBL1201025
   67    71     0     0     0
SMALL
USER_CHARGES

@<TRIPOS>ATOM
      1 C1         -0.0179    1.4678    0.0101 C.3       1 <0>        -0.0460
      2 C2          0.0021   -0.0041    0.0020 C.1       1 <0>        -0.1645
      3 C3          0.0180   -1.1779   -0.0044 C.1       1 <0>        -0.2058
      4 C4          0.0380   -2.6498   -0.0125 C.3       1 <0>         0.2516
      5 C5          0.6396   -3.1768   -1.3393 C.3       1 <0>        -0.1450
      6 C6         -0.5590   -3.0894   -2.3171 C.3       1 <0>        -0.1210
      7 C7         -1.7741   -3.4993   -1.4567 C.3       1 <0>        -0.0716
      8 H1         -2.6429   -2.9047   -1.7391 H         1 <0>         0.0807
      9 C8         -1.3998   -3.2097   -0.0018 C.3       1 <0>        -0.0343
     10 C9         -1.4522   -4.4637    0.8608 C.3       1 <0>        -0.0830
     11 C10        -2.8466   -5.0951    0.7690 C.3       1 <0>        -0.0112
     12 H2         -3.6006   -4.3799    1.0978 H         1 <0>         0.0922
     13 C11        -3.0784   -5.4587   -0.6870 C.2       1 <0>        -0.0537
     14 C12        -4.1490   -6.1720   -1.0075 C.2       1 <0>        -0.1205
     15 C13        -5.1490   -6.6034    0.0398 C.3       1 <0>        -0.0745
     16 C14        -6.5604   -6.3940   -0.5178 C.3       1 <0>        -0.1668
     17 C15        -6.6760   -7.0219   -1.8803 C.2       1 <0>         0.3878
     18 O1         -7.7236   -7.5417   -2.2085 O.2       1 <0>        -0.4740
     19 C16        -5.5968   -7.0191   -2.7816 C.2       1 <0>        -0.2510
     20 C17        -4.3804   -6.5832   -2.3941 C.2       1 <0>         0.0271
     21 C18        -3.2130   -6.5103   -3.3470 C.3       1 <0>        -0.0951
     22 C19        -2.5110   -5.1713   -3.1321 C.3       1 <0>        -0.1131
     23 C20        -2.0656   -4.9842   -1.6891 C.3       1 <0>        -0.0432
     24 H3         -1.1429   -5.5470   -1.5469 H         1 <0>         0.0876
     25 C21        -2.9067   -6.3339    1.6251 C.ar      1 <0>        -0.1268
     26 C22        -2.0468   -7.3877    1.3750 C.ar      1 <0>        -0.0561
     27 C23        -2.0992   -8.5243    2.1576 C.ar      1 <0>        -0.1956
     28 C24        -3.0169   -8.6084    3.1970 C.ar      1 <0>         0.2144
     29 C25        -3.8792   -7.5480    3.4455 C.ar      1 <0>        -0.1953
     30 C26        -3.8177   -6.4120    2.6626 C.ar      1 <0>        -0.0667
     31 N1         -3.0729   -9.7567    3.9901 N.pl3     1 <0>        -0.6390
     32 C27        -2.1631  -10.8743    3.7263 C.3       1 <0>         0.0927
     33 C28        -4.0414   -9.8436    5.0859 C.3       1 <0>         0.0925
     34 C29        -2.3544   -2.1624    0.5753 C.3       1 <0>        -0.1433
     35 O2          0.7761   -3.1451    1.1063 O.3       1 <0>        -0.5393
     36 H4          1.0047    1.8451    0.0024 H         1 <0>         0.0814
     37 H5         -0.5451    1.8289   -0.8729 H         1 <0>         0.0822
     38 H6         -0.5281    1.8193    0.9069 H         1 <0>         0.0819
     39 H7          1.4576   -2.5384   -1.6730 H         1 <0>         0.0717
     40 H8          0.9737   -4.2085   -1.2290 H         1 <0>         0.0859
     41 H9         -0.6781   -2.0705   -2.6855 H         1 <0>         0.0697
     42 H10        -0.4267   -3.7838   -3.1468 H         1 <0>         0.0780
     43 H11        -0.7069   -5.1772    0.5092 H         1 <0>         0.0706
     44 H12        -1.2407   -4.2002    1.8971 H         1 <0>         0.0771
     45 H13        -5.0010   -7.6574    0.2749 H         1 <0>         0.0778
     46 H14        -5.0183   -6.0030    0.9400 H         1 <0>         0.0949
     47 H15        -7.2862   -6.8521    0.1541 H         1 <0>         0.0922
     48 H16        -6.7644   -5.3259   -0.5935 H         1 <0>         0.0970
     49 H17        -5.7430   -7.3690   -3.7929 H         1 <0>         0.1329
     50 H18        -2.5199   -7.3265   -3.1435 H         1 <0>         0.0883
     51 H19        -3.5713   -6.5778   -4.3742 H         1 <0>         0.0837
     52 H20        -1.6372   -5.1214   -3.7817 H         1 <0>         0.0771
     53 H21        -3.1952   -4.3659   -3.3990 H         1 <0>         0.0686
     54 H22        -1.3338   -7.3218    0.5665 H         1 <0>         0.1164
     55 H23        -1.4276   -9.3471    1.9615 H         1 <0>         0.1197
     56 H24        -4.5941   -7.6103    4.2525 H         1 <0>         0.1212
     57 H25        -4.4848   -5.5854    2.8580 H         1 <0>         0.1201
     58 H26        -1.2477  -10.7415    4.3030 H         1 <0>         0.0481
     59 H27        -2.6426  -11.8093    4.0159 H         1 <0>         0.0660
     60 H28        -1.9220  -10.9035    2.6637 H         1 <0>         0.0684
     61 H29        -4.9713  -10.2751    4.7155 H         1 <0>         0.0482
     62 H30        -3.6382  -10.4746    5.8779 H         1 <0>         0.0659
     63 H31        -4.2353   -8.8458    5.4794 H         1 <0>         0.0689
     64 H32        -2.3016   -1.2533   -0.0238 H         1 <0>         0.0581
     65 H33        -3.3728   -2.5503    0.5579 H         1 <0>         0.0598
     66 H34        -2.0687   -1.9375    1.6029 H         1 <0>         0.0587
     67 H35         1.6958   -2.8475    1.1336 H         1 <0>         0.3790
@<TRIPOS>BOND
     1    1    2 1
     2    1   36 1
     3    1   37 1
     4    1   38 1
     5    2    3 3
     6    3    4 1
     7    4    9 1
     8    4    5 1
     9    4   35 1
    10    5    6 1
    11    5   39 1
    12    5   40 1
    13    6    7 1
    14    6   41 1
    15    6   42 1
    16    7    8 1
    17    7   23 1
    18    7    9 1
    19    9   10 1
    20    9   34 1
    21   10   11 1
    22   10   43 1
    23   10   44 1
    24   11   12 1
    25   11   13 1
    26   11   25 1
    27   13   23 1
    28   13   14 2
    29   14   20 1
    30   14   15 1
    31   15   16 1
    32   15   45 1
    33   15   46 1
    34   16   17 1
    35   16   47 1
    36   16   48 1
    37   17   18 2
    38   17   19 1
    39   19   20 2
    40   19   49 1
    41   20   21 1
    42   21   22 1
    43   21   50 1
    44   21   51 1
    45   22   23 1
    46   22   52 1
    47   22   53 1
    48   23   24 1
    49   25   30 ar
    50   25   26 ar
    51   26   27 ar
    52   26   54 1
    53   27   28 ar
    54   27   55 1
    55   28   29 ar
    56   28   31 1
    57   29   30 ar
    58   29   56 1
    59   30   57 1
    60   31   32 1
    61   31   33 1
    62   32   58 1
    63   32   59 1
    64   32   60 1
    65   33   61 1
    66   33   62 1
    67   33   63 1
    68   34   64 1
    69   34   65 1
    70   34   66 1
    71   35   67 1
@<TRIPOS>MOLECULE
CHEMBL186948
   60    65     0     0     0
SMALL
USER_CHARGES

@<TRIPOS>ATOM
      1 C1          0.1000    1.5943   -0.0349 C.3       1 <0>        -0.1499
      2 C2          0.0493    0.0656    0.0013 C.3       1 <0>        -0.0119
      3 C3         -1.4265   -0.3640   -0.0230 C.3       1 <0>        -0.0344
      4 C4         -1.9265   -1.1702    1.1540 C.2       1 <0>        -0.2167
      5 C5         -3.1803   -1.6864    1.4701 C.2       1 <0>         0.0700
      6 N1         -3.0971   -2.3123    2.6176 N.2       1 <0>        -0.2799
      7 N2         -1.7807   -2.2224    3.0857 N.pl3     1 <0>        -0.3214
      8 C6         -1.0555   -1.5135    2.1641 C.2       1 <0>         0.1196
      9 C7          0.3617   -1.1347    2.1286 C.2       1 <0>        -0.1259
     10 C8          0.8924   -0.4055    1.1666 C.2       1 <0>        -0.0473
     11 C9          2.3646   -0.0676    1.1726 C.3       1 <0>        -0.0838
     12 C10         2.9710   -0.5388   -0.1548 C.3       1 <0>        -0.1125
     13 C11         2.1694    0.0478   -1.3178 C.3       1 <0>        -0.1360
     14 C12         0.7259   -0.4565   -1.2667 C.3       1 <0>        -0.1028
     15 H1          0.7217   -1.5465   -1.2585 H         1 <0>         0.0828
     16 C13        -0.0344    0.0475   -2.4951 C.3       1 <0>         0.1481
     17 C14         0.5307   -0.5965   -3.7348 C.ar      1 <0>        -0.1094
     18 C15         1.7082   -0.0995   -4.2907 C.ar      1 <0>        -0.1096
     19 C16         2.2449   -0.6577   -5.4098 C.ar      1 <0>        -0.1014
     20 C17         1.6051   -1.7521   -6.0164 C.ar      1 <0>        -0.0520
     21 C18         2.1294   -2.3552   -7.1725 C.ar      1 <0>        -0.1070
     22 C19         1.4825   -3.4137   -7.7322 C.ar      1 <0>        -0.1154
     23 C20         0.3052   -3.9109   -7.1761 C.ar      1 <0>        -0.1149
     24 C21        -0.2317   -3.3524   -6.0572 C.ar      1 <0>        -0.1069
     25 C22         0.4080   -2.2577   -5.4509 C.ar      1 <0>        -0.0485
     26 C23        -0.1133   -1.6582   -4.2916 C.ar      1 <0>        -0.0952
     27 O1          0.1026    1.4667   -2.5909 O.3       1 <0>        -0.5446
     28 C24        -1.2918   -2.7617    4.2831 C.ar      1 <0>         0.1484
     29 C25         0.0047   -3.2550    4.3451 C.ar      1 <0>        -0.1050
     30 C26         0.4849   -3.7856    5.5261 C.ar      1 <0>        -0.1303
     31 C27        -0.3257   -3.8260    6.6483 C.ar      1 <0>         0.0972
     32 C28        -1.6192   -3.3349    6.5884 C.ar      1 <0>        -0.1318
     33 C29        -2.1012   -2.7982    5.4108 C.ar      1 <0>        -0.0830
     34 F1          0.1458   -4.3455    7.8028 F         1 <0>        -0.1333
     35 H2          1.1098    1.9185   -0.2866 H         1 <0>         0.0608
     36 H3         -0.5979    1.9633   -0.7865 H         1 <0>         0.0888
     37 H4         -0.1757    1.9903    0.9425 H         1 <0>         0.0473
     38 H5         -2.0370    0.5359   -0.0970 H         1 <0>         0.0779
     39 H6         -1.5903   -0.9517   -0.9263 H         1 <0>         0.0720
     40 H7         -4.0724   -1.5870    0.8696 H         1 <0>         0.1904
     41 H8          0.9975   -1.4516    2.9420 H         1 <0>         0.1177
     42 H9          2.4939    1.0100    1.2738 H         1 <0>         0.0838
     43 H10         2.8552   -0.5767    2.0021 H         1 <0>         0.0747
     44 H11         4.0059   -0.2031   -0.2210 H         1 <0>         0.0710
     45 H12         2.9382   -1.6272   -0.2033 H         1 <0>         0.0651
     46 H13         2.1750    1.1356   -1.2487 H         1 <0>         0.0748
     47 H14         2.6251   -0.2553   -2.2604 H         1 <0>         0.0764
     48 H15        -1.0893   -0.2101   -2.4004 H         1 <0>         0.1136
     49 H16         2.2019    0.7415   -3.8265 H         1 <0>         0.1224
     50 H17         3.1576   -0.2614   -5.8299 H         1 <0>         0.1281
     51 H18         3.0406   -1.9803   -7.6146 H         1 <0>         0.1271
     52 H19         1.8873   -3.8751   -8.6208 H         1 <0>         0.1237
     53 H20        -0.1886   -4.7518   -7.6403 H         1 <0>         0.1239
     54 H21        -1.1448   -3.7481   -5.6376 H         1 <0>         0.1272
     55 H22        -1.0224   -2.0357   -3.8472 H         1 <0>         0.1272
     56 H23         1.0171    1.7686   -2.6776 H         1 <0>         0.3705
     57 H24         0.6371   -3.2240    3.4701 H         1 <0>         0.1420
     58 H25         1.4931   -4.1697    5.5746 H         1 <0>         0.1470
     59 H26        -2.2500   -3.3676    7.4645 H         1 <0>         0.1469
     60 H27        -3.1084   -2.4110    5.3658 H         1 <0>         0.1445
@<TRIPOS>BOND
     1    1    2 1
     2    1   35 1
     3    1   36 1
     4    1   37 1
     5    2   10 1
     6    2   14 1
     7    2    3 1
     8    3    4 1
     9    3   38 1
    10    3   39 1
    11    4    8 2
    12    4    5 1
    13    5    6 2
    14    5   40 1
    15    6    7 1
    16    7    8 1
    17    7   28 1
    18    8    9 1
    19    9   10 2
    20    9   41 1
    21   10   11 1
    22   11   12 1
    23   11   42 1
    24   11   43 1
    25   12   13 1
    26   12   44 1
    27   12   45 1
    28   13   14 1
    29   13   46 1
    30   13   47 1
    31   14   15 1
    32   14   16 1
    33   16   17 1
    34   16   27 1
    35   16   48 1
    36   17   26 ar
    37   17   18 ar
    38   18   19 ar
    39   18   49 1
    40   19   20 ar
    41   19   50 1
    42   20   25 ar
    43   20   21 ar
    44   21   22 ar
    45   21   51 1
    46   22   23 ar
    47   22   52 1
    48   23   24 ar
    49   23   53 1
    50   24   25 ar
    51   24   54 1
    52   25   26 ar
    53   26   55 1
    54   27   56 1
    55   28   33 ar
    56   28   29 ar
    57   29   30 ar
    58   29   57 1
    59   30   31 ar
    60   30   58 1
    61   31   32 ar
    62   31   34 1
    63   32   33 ar
    64   32   59 1
    65   33   60 1
@<TRIPOS>MOLECULE
CHEMBL186948__1
   60    65     0     0     0
SMALL
USER_CHARGES

@<TRIPOS>ATOM
      1 C1         -0.0050    1.8462   -0.2077 C.3       1 <0>        -0.1524
      2 C2         -0.0816    0.3296   -0.0206 C.3       1 <0>        -0.0094
      3 C3         -1.5455   -0.1012   -0.2069 C.3       1 <0>        -0.0659
      4 C4         -2.2159   -0.7802    0.9655 C.2       1 <0>        -0.2069
      5 C5         -3.5087   -1.2614    1.1546 C.2       1 <0>         0.0675
      6 N1         -3.5951   -1.7638    2.3611 N.2       1 <0>        -0.2809
      7 N2         -2.3558   -1.6245    2.9972 N.pl3     1 <0>        -0.3226
      8 C6         -1.4993   -1.0153    2.1179 C.2       1 <0>         0.1089
      9 C7         -0.0858   -0.6413    2.2422 C.2       1 <0>        -0.1206
     10 C8          0.5840   -0.0164    1.2938 C.2       1 <0>        -0.0530
     11 C9          2.0455    0.3214    1.4710 C.3       1 <0>        -0.0841
     12 C10         2.8245   -0.2857    0.2978 C.3       1 <0>        -0.1139
     13 C11         2.2012    0.1754   -1.0206 C.3       1 <0>        -0.1241
     14 C12         0.7578   -0.3218   -1.1203 C.3       1 <0>        -0.1015
     15 H1          0.7373   -1.4049   -0.9998 H         1 <0>         0.0781
     16 C13         0.1834    0.0504   -2.4887 C.3       1 <0>         0.1472
     17 C14         1.1191   -0.4216   -3.5716 C.ar      1 <0>        -0.1073
     18 C15         1.0238   -1.7315   -4.0382 C.ar      1 <0>        -0.1107
     19 C16         1.8537   -2.1896   -5.0148 C.ar      1 <0>        -0.0989
     20 C17         2.8221   -1.3315   -5.5633 C.ar      1 <0>        -0.0526
     21 C18         3.6963   -1.7683   -6.5734 C.ar      1 <0>        -0.1065
     22 C19         4.6214   -0.9091   -7.0812 C.ar      1 <0>        -0.1157
     23 C20         4.7165    0.4008   -6.6148 C.ar      1 <0>        -0.1145
     24 C21         3.8869    0.8587   -5.6379 C.ar      1 <0>        -0.1073
     25 C22         2.9187    0.0005   -5.0891 C.ar      1 <0>        -0.0485
     26 C23         2.0409    0.4391   -4.0830 C.ar      1 <0>        -0.0944
     27 O1         -1.0915   -0.5731   -2.6557 O.3       1 <0>        -0.5384
     28 C24        -2.0462   -2.0351    4.3007 C.ar      1 <0>         0.1502
     29 C25        -0.7780   -2.5183    4.5946 C.ar      1 <0>        -0.1058
     30 C26        -0.4747   -2.9221    5.8799 C.ar      1 <0>        -0.1303
     31 C27        -1.4344   -2.8454    6.8754 C.ar      1 <0>         0.0960
     32 C28        -2.7000   -2.3642    6.5842 C.ar      1 <0>        -0.1316
     33 C29        -3.0054   -1.9541    5.3014 C.ar      1 <0>        -0.0841
     34 F1         -1.1358   -3.2410    8.1322 F         1 <0>        -0.1338
     35 H2          1.0393    2.1582   -0.2222 H         1 <0>         0.0644
     36 H3         -0.4792    2.1205   -1.1501 H         1 <0>         0.0649
     37 H4         -0.5206    2.3404    0.6157 H         1 <0>         0.0583
     38 H5         -2.1271    0.7856   -0.4587 H         1 <0>         0.0711
     39 H6         -1.5899   -0.7803   -1.0584 H         1 <0>         0.1198
     40 H7         -4.3069   -1.2260    0.4279 H         1 <0>         0.1898
     41 H8          0.4258   -0.8709    3.1652 H         1 <0>         0.1163
     42 H9          2.1745    1.4037    1.4770 H         1 <0>         0.0826
     43 H10         2.4085   -0.0978    2.4094 H         1 <0>         0.0741
     44 H11         3.8631    0.0420    0.3429 H         1 <0>         0.0702
     45 H12         2.7836   -1.3732    0.3583 H         1 <0>         0.0644
     46 H13         2.2123    1.2645   -1.0645 H         1 <0>         0.0721
     47 H14         2.7797   -0.2243   -1.8534 H         1 <0>         0.0734
     48 H15         0.0698    1.1326   -2.5529 H         1 <0>         0.1148
     49 H16         0.2805   -2.3929   -3.6184 H         1 <0>         0.1203
     50 H17         1.7687   -3.2073   -5.3660 H         1 <0>         0.1279
     51 H18         3.6344   -2.7807   -6.9443 H         1 <0>         0.1270
     52 H19         5.2922   -1.2474   -7.8571 H         1 <0>         0.1236
     53 H20         5.4599    1.0623   -7.0346 H         1 <0>         0.1238
     54 H21         3.9724    1.8762   -5.2860 H         1 <0>         0.1272
     55 H22         2.1001    1.4527   -3.7150 H         1 <0>         0.1275
     56 H23        -1.0621   -1.5395   -2.6384 H         1 <0>         0.3753
     57 H24        -0.0294   -2.5786    3.8184 H         1 <0>         0.1417
     58 H25         0.5114   -3.2983    6.1088 H         1 <0>         0.1466
     59 H26        -3.4471   -2.3055    7.3618 H         1 <0>         0.1465
     60 H27        -3.9910   -1.5744    5.0758 H         1 <0>         0.1442
@<TRIPOS>BOND
     1    1    2 1
     2    1   35 1
     3    1   36 1
     4    1   37 1
     5    2   10 1
     6    2   14 1
     7    2    3 1
     8    3    4 1
     9    3   38 1
    10    3   39 1
    11    4    8 2
    12    4    5 1
    13    5    6 2
    14    5   40 1
    15    6    7 1
    16    7    8 1
    17    7   28 1
    18    8    9 1
    19    9   10 2
    20    9   41 1
    21   10   11 1
    22   11   12 1
    23   11   42 1
    24   11   43 1
    25   12   13 1
    26   12   44 1
    27   12   45 1
    28   13   14 1
    29   13   46 1
    30   13   47 1
    31   14   15 1
    32   14   16 1
    33   16   17 1
    34   16   27 1
    35   16   48 1
    36   17   26 ar
    37   17   18 ar
    38   18   19 ar
    39   18   49 1
    40   19   20 ar
    41   19   50 1
    42   20   25 ar
    43   20   21 ar
    44   21   22 ar
    45   21   51 1
    46   22   23 ar
    47   22   52 1
    48   23   24 ar
    49   23   53 1
    50   24   25 ar
    51   24   54 1
    52   25   26 ar
    53   26   55 1
    54   27   56 1
    55   28   33 ar
    56   28   29 ar
    57   29   30 ar
    58   29   57 1
    59   30   31 ar
    60   30   58 1
    61   31   32 ar
    62   31   34 1
    63   32   33 ar
    64   32   59 1
    65   33   60 1
@<TRIPOS>MOLECULE
CHEMBL78704
   65    69     0     0     0
SMALL
USER_CHARGES

@<TRIPOS>ATOM
      1 C1         -0.2614    1.6786    0.9776 C.3       1 <0>        -0.0463
      2 C2         -0.1828    0.2112    0.8908 C.1       1 <0>        -0.1606
      3 C3         -0.1202   -0.9591    0.8216 C.1       1 <0>        -0.2083
      4 C4         -0.0419   -2.4213    0.7351 C.3       1 <0>         0.2506
      5 C5          0.7003   -2.8533   -0.5605 C.3       1 <0>        -0.1447
      6 C6         -0.3955   -3.1455   -1.6153 C.3       1 <0>        -0.1160
      7 C7         -1.7154   -2.7995   -0.9262 C.3       1 <0>        -0.0779
      8 C8         -1.4206   -3.0813    0.5667 C.3       1 <0>        -0.0293
      9 C9         -2.5550   -2.4714    1.3688 C.3       1 <0>        -0.0735
     10 C10        -3.8453   -3.0783    0.8594 C.2       1 <0>        -0.1472
     11 C11        -4.0076   -3.5633   -0.3359 C.2       1 <0>        -0.0945
     12 C12        -2.9339   -3.5473   -1.3959 C.3       1 <0>        -0.0297
     13 C13        -2.6323   -4.9116   -1.9787 C.3       1 <0>        -0.1022
     14 C14        -3.8302   -5.8548   -1.8964 C.3       1 <0>        -0.1064
     15 C15        -5.1137   -5.0608   -1.8987 C.2       1 <0>        -0.0016
     16 C16        -5.9877   -5.1916   -2.8873 C.2       1 <0>        -0.2456
     17 C17        -7.2407   -4.4414   -2.9026 C.2       1 <0>         0.3894
     18 O1         -8.0284   -4.5905   -3.8135 O.2       1 <0>        -0.4636
     19 C18        -7.5545   -3.4832   -1.7818 C.3       1 <0>        -0.1693
     20 C19        -6.2492   -2.9658   -1.1783 C.3       1 <0>        -0.1025
     21 C20        -5.3650   -4.1305   -0.7311 C.3       1 <0>         0.0086
     22 C21        -6.0090   -4.8988    0.4268 C.3       1 <0>        -0.0657
     23 C22        -5.1873   -6.1238    0.7353 C.ar      1 <0>        -0.0859
     24 C23        -5.4786   -7.3252    0.1167 C.ar      1 <0>        -0.1085
     25 C24        -4.7249   -8.4489    0.3997 C.ar      1 <0>        -0.1220
     26 C25        -3.6797   -8.3712    1.3010 C.ar      1 <0>        -0.0851
     27 C26        -3.3878   -7.1696    1.9189 C.ar      1 <0>        -0.1180
     28 C27        -4.1388   -6.0449    1.6327 C.ar      1 <0>        -0.1025
     29 C28        -2.8587   -9.5965    1.6102 C.3       1 <0>        -0.1172
     30 C29        -1.3027   -4.5792    0.8833 C.3       1 <0>        -0.1376
     31 O2          0.6237   -2.9558    1.8850 O.3       1 <0>        -0.5410
     32 H1          0.7412    2.0897    1.0957 H         1 <0>         0.0820
     33 H2         -0.7108    2.0729    0.0663 H         1 <0>         0.0826
     34 H3         -0.8726    1.9596    1.8353 H         1 <0>         0.0826
     35 H4          1.3429   -2.0431   -0.9053 H         1 <0>         0.0676
     36 H5          1.2922   -3.7472   -0.3743 H         1 <0>         0.0836
     37 H6         -0.2520   -2.5049   -2.4871 H         1 <0>         0.0661
     38 H7         -0.3689   -4.1909   -1.9094 H         1 <0>         0.0776
     39 H8         -1.9050   -1.7245   -1.0643 H         1 <0>         0.0722
     40 H9         -2.4360   -2.7081    2.4280 H         1 <0>         0.0756
     41 H10        -2.6045   -1.3917    1.2368 H         1 <0>         0.0752
     42 H11        -4.6795   -3.0721    1.5448 H         1 <0>         0.1083
     43 H12        -3.3484   -2.9469   -2.2313 H         1 <0>         0.0664
     44 H13        -2.3767   -4.7816   -3.0401 H         1 <0>         0.0609
     45 H14        -1.7789   -5.3704   -1.4927 H         1 <0>         0.0765
     46 H15        -3.8212   -6.5262   -2.7550 H         1 <0>         0.0723
     47 H16        -3.7668   -6.4411   -0.9808 H         1 <0>         0.1006
     48 H17        -5.7681   -5.8708   -3.6988 H         1 <0>         0.1300
     49 H18        -8.1243   -2.6393   -2.1843 H         1 <0>         0.0961
     50 H19        -8.1556   -3.9804   -1.0235 H         1 <0>         0.1035
     51 H20        -5.7129   -2.3752   -1.9256 H         1 <0>         0.0737
     52 H21        -6.4694   -2.3289   -0.3192 H         1 <0>         0.0815
     53 H22        -6.0520   -4.2587    1.3081 H         1 <0>         0.0849
     54 H23        -7.0185   -5.1995    0.1465 H         1 <0>         0.0793
     55 H24        -6.2952   -7.3859   -0.5875 H         1 <0>         0.1182
     56 H25        -4.9530   -9.3877   -0.0831 H         1 <0>         0.1196
     57 H26        -2.5714   -7.1089    2.6233 H         1 <0>         0.1202
     58 H27        -3.9084   -5.1052    2.1127 H         1 <0>         0.1255
     59 H28        -2.0180   -9.6545    0.9189 H         1 <0>         0.0700
     60 H29        -2.4850   -9.5350    2.6323 H         1 <0>         0.0659
     61 H30        -3.4792  -10.4862    1.5031 H         1 <0>         0.0652
     62 H31        -0.9823   -4.7080    1.9171 H         1 <0>         0.0639
     63 H32        -2.2715   -5.0581    0.7407 H         1 <0>         0.0760
     64 H33        -0.5706   -5.0349    0.2166 H         1 <0>         0.0527
     65 H34         1.5258   -2.6286    2.0049 H         1 <0>         0.3776
@<TRIPOS>BOND
     1    1    2 1
     2    1   32 1
     3    1   33 1
     4    1   34 1
     5    2    3 3
     6    3    4 1
     7    4    8 1
     8    4    5 1
     9    4   31 1
    10    5    6 1
    11    5   35 1
    12    5   36 1
    13    6    7 1
    14    6   37 1
    15    6   38 1
    16    7   12 1
    17    7    8 1
    18    7   39 1
    19    8    9 1
    20    8   30 1
    21    9   10 1
    22    9   40 1
    23    9   41 1
    24   10   11 2
    25   10   42 1
    26   11   21 1
    27   11   12 1
    28   12   13 1
    29   12   43 1
    30   13   14 1
    31   13   44 1
    32   13   45 1
    33   14   15 1
    34   14   46 1
    35   14   47 1
    36   15   21 1
    37   15   16 2
    38   16   17 1
    39   16   48 1
    40   17   18 2
    41   17   19 1
    42   19   20 1
    43   19   49 1
    44   19   50 1
    45   20   21 1
    46   20   51 1
    47   20   52 1
    48   21   22 1
    49   22   23 1
    50   22   53 1
    51   22   54 1
    52   23   28 ar
    53   23   24 ar
    54   24   25 ar
    55   24   55 1
    56   25   26 ar
    57   25   56 1
    58   26   27 ar
    59   26   29 1
    60   27   28 ar
    61   27   57 1
    62   28   58 1
    63   29   59 1
    64   29   60 1
    65   29   61 1
    66   30   62 1
    67   30   63 1
    68   30   64 1
    69   31   65 1
@<TRIPOS>MOLECULE
CHEMBL78704__1
   65    69     0     0     0
SMALL
USER_CHARGES

@<TRIPOS>ATOM
      1 C1          0.2633    1.1609   -1.6630 C.3       1 <0>        -0.0465
      2 C2          0.2288   -0.2878   -1.4046 C.1       1 <0>        -0.1624
      3 C3          0.2013   -1.4433   -1.1985 C.1       1 <0>        -0.2129
      4 C4          0.1668   -2.8920   -0.9401 C.3       1 <0>         0.2569
      5 C5          0.6854   -3.6684   -2.1744 C.3       1 <0>        -0.1447
      6 C6         -0.5098   -4.5082   -2.6989 C.3       1 <0>        -0.1130
      7 C7         -1.7291   -3.7425   -2.1703 C.3       1 <0>        -0.0829
      8 C8         -1.2743   -3.3588   -0.7389 C.3       1 <0>        -0.0403
      9 C9         -2.2410   -2.2886   -0.2538 C.3       1 <0>        -0.0719
     10 C10        -3.6192   -2.9079   -0.2937 C.2       1 <0>        -0.1523
     11 C11        -3.9445   -3.8983   -1.0751 C.2       1 <0>        -0.1024
     12 C12        -3.0103   -4.5389   -2.0770 C.3       1 <0>        -0.0331
     13 C13        -3.6767   -4.6043   -3.4530 C.3       1 <0>        -0.1083
     14 C14        -5.0150   -5.3446   -3.3732 C.3       1 <0>        -0.0983
     15 C15        -5.8902   -4.6076   -2.3743 C.2       1 <0>        -0.0183
     16 C16        -7.0702   -4.1366   -2.7668 C.2       1 <0>        -0.2318
     17 C17        -7.8784   -3.3735   -1.8032 C.2       1 <0>         0.3914
     18 O1         -9.0889   -3.3254   -1.8705 O.2       1 <0>        -0.4547
     19 C18        -7.1000   -2.6505   -0.7189 C.3       1 <0>        -0.1648
     20 C19        -6.2110   -3.6801   -0.0230 C.3       1 <0>        -0.1280
     21 C20        -5.3513   -4.4525   -0.9872 C.3       1 <0>         0.0157
     22 C21        -5.2252   -5.8632   -0.4087 C.3       1 <0>        -0.0725
     23 C22        -6.5822   -6.5182   -0.3816 C.ar      1 <0>        -0.0908
     24 C23        -7.3460   -6.4784    0.7698 C.ar      1 <0>        -0.1139
     25 C24        -8.5907   -7.0792    0.7947 C.ar      1 <0>        -0.1187
     26 C25        -9.0718   -7.7194   -0.3321 C.ar      1 <0>        -0.0845
     27 C26        -8.3084   -7.7583   -1.4839 C.ar      1 <0>        -0.1167
     28 C27        -7.0655   -7.1539   -1.5100 C.ar      1 <0>        -0.1081
     29 C28       -10.4284   -8.3752   -0.3047 C.3       1 <0>        -0.1170
     30 C29        -1.3129   -4.5827    0.1784 C.3       1 <0>        -0.1310
     31 O2          0.9535   -3.2070    0.2105 O.3       1 <0>        -0.5403
     32 H1          1.2958    1.4803   -1.8045 H         1 <0>         0.0820
     33 H2         -0.3122    1.3835   -2.5616 H         1 <0>         0.0824
     34 H3         -0.1682    1.6917   -0.8144 H         1 <0>         0.0824
     35 H4          1.0177   -2.9704   -2.9428 H         1 <0>         0.0722
     36 H5          1.5057   -4.3254   -1.8854 H         1 <0>         0.0813
     37 H6         -0.5138   -4.5341   -3.7886 H         1 <0>         0.0713
     38 H7         -0.4811   -5.5176   -2.2885 H         1 <0>         0.0752
     39 H8         -1.8925   -2.8464   -2.7690 H         1 <0>         0.0775
     40 H9         -1.9925   -1.9949    0.7661 H         1 <0>         0.0748
     41 H10        -2.2013   -1.4220   -0.9137 H         1 <0>         0.0784
     42 H11        -4.3773   -2.5065    0.3625 H         1 <0>         0.1207
     43 H12        -2.7793   -5.5543   -1.7550 H         1 <0>         0.0847
     44 H13        -3.8481   -3.5913   -3.8172 H         1 <0>         0.0670
     45 H14        -3.0180   -5.1274   -4.1462 H         1 <0>         0.0735
     46 H15        -5.4942   -5.3485   -4.3522 H         1 <0>         0.0802
     47 H16        -4.8516   -6.3684   -3.0367 H         1 <0>         0.0837
     48 H17        -7.4272   -4.3103   -3.7712 H         1 <0>         0.1356
     49 H18        -6.4829   -1.8703   -1.1646 H         1 <0>         0.0972
     50 H19        -7.7902   -2.2110    0.0012 H         1 <0>         0.0907
     51 H20        -5.5661   -3.1643    0.6884 H         1 <0>         0.0932
     52 H21        -6.8441   -4.3798    0.5227 H         1 <0>         0.0859
     53 H22        -4.5501   -6.4517   -1.0300 H         1 <0>         0.0796
     54 H23        -4.8290   -5.8061    0.6051 H         1 <0>         0.0802
     55 H24        -6.9701   -5.9783    1.6502 H         1 <0>         0.1215
     56 H25        -9.1871   -7.0488    1.6946 H         1 <0>         0.1205
     57 H26        -8.6841   -8.2588   -2.3641 H         1 <0>         0.1198
     58 H27        -6.4706   -7.1811   -2.4110 H         1 <0>         0.1205
     59 H28       -11.1863   -7.6551   -0.6130 H         1 <0>         0.0710
     60 H29       -10.4351   -9.2247   -0.9876 H         1 <0>         0.0659
     61 H30       -10.6448   -8.7201    0.7064 H         1 <0>         0.0659
     62 H31        -0.9078   -4.3177    1.1550 H         1 <0>         0.0640
     63 H32        -2.3433   -4.9195    0.2917 H         1 <0>         0.0626
     64 H33        -0.7150   -5.3828   -0.2580 H         1 <0>         0.0567
     65 H34         1.8828   -2.9508    0.1337 H         1 <0>         0.3782
@<TRIPOS>BOND
     1    1    2 1
     2    1   32 1
     3    1   33 1
     4    1   34 1
     5    2    3 3
     6    3    4 1
     7    4    8 1
     8    4    5 1
     9    4   31 1
    10    5    6 1
    11    5   35 1
    12    5   36 1
    13    6    7 1
    14    6   37 1
    15    6   38 1
    16    7   12 1
    17    7    8 1
    18    7   39 1
    19    8    9 1
    20    8   30 1
    21    9   10 1
    22    9   40 1
    23    9   41 1
    24   10   11 2
    25   10   42 1
    26   11   21 1
    27   11   12 1
    28   12   13 1
    29   12   43 1
    30   13   14 1
    31   13   44 1
    32   13   45 1
    33   14   15 1
    34   14   46 1
    35   14   47 1
    36   15   21 1
    37   15   16 2
    38   16   17 1
    39   16   48 1
    40   17   18 2
    41   17   19 1
    42   19   20 1
    43   19   49 1
    44   19   50 1
    45   20   21 1
    46   20   51 1
    47   20   52 1
    48   21   22 1
    49   22   23 1
    50   22   53 1
    51   22   54 1
    52   23   28 ar
    53   23   24 ar
    54   24   25 ar
    55   24   55 1
    56   25   26 ar
    57   25   56 1
    58   26   27 ar
    59   26   29 1
    60   27   28 ar
    61   27   57 1
    62   28   58 1
    63   29   59 1
    64   29   60 1
    65   29   61 1
    66   30   62 1
    67   30   63 1
    68   30   64 1
    69   31   65 1
@<TRIPOS>MOLECULE
CHEMBL78704__2
   65    69     0     0     0
SMALL
USER_CHARGES

@<TRIPOS>ATOM
      1 C1         -0.3754    1.9187   -0.1573 C.3       1 <0>        -0.0459
      2 C2         -0.2542    0.4520   -0.1293 C.1       1 <0>        -0.1655
      3 C3         -0.1575   -0.7178   -0.1070 C.1       1 <0>        -0.2113
      4 C4         -0.0362   -2.1846   -0.0790 C.3       1 <0>         0.2464
      5 C5          0.6358   -2.6858   -1.3720 C.3       1 <0>        -0.1459
      6 C6         -0.3569   -3.6738   -2.0313 C.3       1 <0>        -0.1140
      7 C7         -1.2256   -4.1331   -0.8505 C.3       1 <0>        -0.0751
      8 C8         -1.4480   -2.8379   -0.0446 C.3       1 <0>        -0.0241
      9 C9         -2.3602   -1.8929   -0.8349 C.3       1 <0>        -0.0739
     10 C10        -3.5364   -2.6007   -1.4192 C.2       1 <0>        -0.1454
     11 C11        -3.5996   -3.8770   -1.6205 C.2       1 <0>        -0.0958
     12 C12        -2.4974   -4.8229   -1.2474 C.3       1 <0>        -0.0343
     13 C13        -2.9501   -5.8215   -0.1909 C.3       1 <0>        -0.1061
     14 C14        -4.4469   -6.1026   -0.2695 C.3       1 <0>        -0.1021
     15 C15        -4.9576   -5.8773   -1.6708 C.2       1 <0>        -0.0011
     16 C16        -5.4822   -6.8712   -2.3755 C.2       1 <0>        -0.2458
     17 C17        -5.9697   -6.6603   -3.7373 C.2       1 <0>         0.3885
     18 O1         -6.4665   -7.5792   -4.3544 O.2       1 <0>        -0.4632
     19 C18        -5.8540   -5.2974   -4.3733 C.3       1 <0>        -0.1709
     20 C19        -4.6582   -4.5634   -3.7578 C.3       1 <0>        -0.1007
     21 C20        -4.8509   -4.4786   -2.2436 C.3       1 <0>         0.0064
     22 C21        -6.0872   -3.6508   -1.8867 C.3       1 <0>        -0.0680
     23 C22        -6.3416   -3.7414   -0.4041 C.ar      1 <0>        -0.0853
     24 C23        -7.1267   -4.7608    0.1014 C.ar      1 <0>        -0.1079
     25 C24        -7.3600   -4.8439    1.4613 C.ar      1 <0>        -0.1216
     26 C25        -6.8079   -3.9081    2.3159 C.ar      1 <0>        -0.0850
     27 C26        -6.0221   -2.8893    1.8105 C.ar      1 <0>        -0.1192
     28 C27        -5.7852   -2.8086    0.4510 C.ar      1 <0>        -0.1042
     29 C28        -7.0632   -3.9982    3.7983 C.3       1 <0>        -0.1172
     30 C29        -1.9450   -3.1052    1.3775 C.3       1 <0>        -0.1242
     31 O2          0.7224   -2.5930    1.0611 O.3       1 <0>        -0.5420
     32 H1          0.6187    2.3650   -0.1812 H         1 <0>         0.0814
     33 H2         -0.9306    2.2205   -1.0454 H         1 <0>         0.0822
     34 H3         -0.9041    2.2566    0.7340 H         1 <0>         0.0819
     35 H4          0.8287   -1.8477   -2.0417 H         1 <0>         0.0724
     36 H5          1.5687   -3.1968   -1.1341 H         1 <0>         0.0806
     37 H6         -0.9636   -3.1670   -2.7817 H         1 <0>         0.0719
     38 H7          0.1744   -4.5183   -2.4701 H         1 <0>         0.0726
     39 H8         -0.6385   -4.8141   -0.2344 H         1 <0>         0.0792
     40 H9         -2.7157   -1.1062   -0.1695 H         1 <0>         0.0705
     41 H10        -1.7847   -1.4383   -1.6413 H         1 <0>         0.0774
     42 H11        -4.3950   -2.0058   -1.6937 H         1 <0>         0.1097
     43 H12        -2.2715   -5.4078   -2.1390 H         1 <0>         0.0702
     44 H13        -2.4067   -6.7559   -0.3312 H         1 <0>         0.0651
     45 H14        -2.7162   -5.4228    0.7962 H         1 <0>         0.0743
     46 H15        -4.6338   -7.1369    0.0190 H         1 <0>         0.0721
     47 H16        -4.9735   -5.4384    0.4158 H         1 <0>         0.0968
     48 H17        -5.5508   -7.8547   -1.9346 H         1 <0>         0.1302
     49 H18        -5.7018   -5.4072   -5.4470 H         1 <0>         0.0974
     50 H19        -6.7658   -4.7295   -4.1881 H         1 <0>         0.1032
     51 H20        -3.7416   -5.1103   -3.9788 H         1 <0>         0.0760
     52 H21        -4.5939   -3.5580   -4.1740 H         1 <0>         0.0823
     53 H22        -5.9198   -2.6099   -2.1637 H         1 <0>         0.0856
     54 H23        -6.9512   -4.0363   -2.4279 H         1 <0>         0.0797
     55 H24        -7.5580   -5.4919   -0.5663 H         1 <0>         0.1181
     56 H25        -7.9740   -5.6399    1.8562 H         1 <0>         0.1195
     57 H26        -5.5910   -2.1579    2.4781 H         1 <0>         0.1188
     58 H27        -5.1682   -2.0148    0.0565 H         1 <0>         0.1250
     59 H28        -6.2905   -4.6104    4.2635 H         1 <0>         0.0702
     60 H29        -7.0443   -2.9982    4.2317 H         1 <0>         0.0655
     61 H30        -8.0393   -4.4511    3.9721 H         1 <0>         0.0654
     62 H31        -2.0253   -2.1618    1.9176 H         1 <0>         0.0528
     63 H32        -2.9230   -3.5847    1.3365 H         1 <0>         0.0629
     64 H33        -1.2408   -3.7593    1.8915 H         1 <0>         0.0655
     65 H34         1.6179   -2.2291    1.0886 H         1 <0>         0.3780
@<TRIPOS>BOND
     1    1    2 1
     2    1   32 1
     3    1   33 1
     4    1   34 1
     5    2    3 3
     6    3    4 1
     7    4    8 1
     8    4    5 1
     9    4   31 1
    10    5    6 1
    11    5   35 1
    12    5   36 1
    13    6    7 1
    14    6   37 1
    15    6   38 1
    16    7   12 1
    17    7    8 1
    18    7   39 1
    19    8    9 1
    20    8   30 1
    21    9   10 1
    22    9   40 1
    23    9   41 1
    24   10   11 2
    25   10   42 1
    26   11   21 1
    27   11   12 1
    28   12   13 1
    29   12   43 1
    30   13   14 1
    31   13   44 1
    32   13   45 1
    33   14   15 1
    34   14   46 1
    35   14   47 1
    36   15   21 1
    37   15   16 2
    38   16   17 1
    39   16   48 1
    40   17   18 2
    41   17   19 1
    42   19   20 1
    43   19   49 1
    44   19   50 1
    45   20   21 1
    46   20   51 1
    47   20   52 1
    48   21   22 1
    49   22   23 1
    50   22   53 1
    51   22   54 1
    52   23   28 ar
    53   23   24 ar
    54   24   25 ar
    55   24   55 1
    56   25   26 ar
    57   25   56 1
    58   26   27 ar
    59   26   29 1
    60   27   28 ar
    61   27   57 1
    62   28   58 1
    63   29   59 1
    64   29   60 1
    65   29   61 1
    66   30   62 1
    67   30   63 1
    68   30   64 1
    69   31   65 1
@<TRIPOS>MOLECULE
CHEMBL78704__3
   65    69     0     0     0
SMALL
USER_CHARGES

@<TRIPOS>ATOM
      1 C1         -0.7495    2.5160   -0.8922 C.3       1 <0>        -0.0460
      2 C2         -0.4459    1.0788   -0.7982 C.1       1 <0>        -0.1650
      3 C3         -0.2038   -0.0676   -0.7233 C.1       1 <0>        -0.2117
      4 C4          0.0998   -1.5048   -0.6294 C.3       1 <0>         0.2486
      5 C5          0.6932   -2.0083   -1.9585 C.3       1 <0>        -0.1477
      6 C6         -0.2459   -3.1265   -2.4672 C.3       1 <0>        -0.1147
      7 C7         -0.9526   -3.6098   -1.1880 C.3       1 <0>        -0.0731
      8 C8         -1.2066   -2.3122   -0.4028 C.3       1 <0>        -0.0230
      9 C9         -2.3309   -1.5194   -1.0787 C.3       1 <0>        -0.0734
     10 C10        -3.5386   -2.3815   -1.2782 C.2       1 <0>        -0.1406
     11 C11        -3.4664   -3.6651   -1.4589 C.2       1 <0>        -0.1023
     12 C12        -2.1767   -4.4285   -1.4545 C.3       1 <0>        -0.0359
     13 C13        -2.0506   -5.2236   -2.7564 C.3       1 <0>        -0.1072
     14 C14        -3.2395   -6.1804   -2.8829 C.3       1 <0>        -0.0975
     15 C15        -4.5281   -5.3821   -2.8369 C.2       1 <0>        -0.0170
     16 C16        -5.4110   -5.5485   -3.8191 C.2       1 <0>        -0.2379
     17 C17        -6.6667   -4.7910   -3.8220 C.2       1 <0>         0.3887
     18 O1         -7.3213   -4.6533   -4.8342 O.2       1 <0>        -0.4572
     19 C18        -7.1104   -4.1885   -2.5043 C.3       1 <0>        -0.1678
     20 C19        -5.9003   -3.4829   -1.8902 C.3       1 <0>        -0.1241
     21 C20        -4.7499   -4.4498   -1.6807 C.3       1 <0>         0.0161
     22 C21        -5.0437   -5.2779   -0.4281 C.3       1 <0>        -0.0666
     23 C22        -5.3428   -4.3553    0.7253 C.ar      1 <0>        -0.0826
     24 C23        -4.3392   -4.0068    1.6098 C.ar      1 <0>        -0.1031
     25 C24        -4.6135   -3.1605    2.6678 C.ar      1 <0>        -0.1169
     26 C25        -5.8912   -2.6624    2.8411 C.ar      1 <0>        -0.0850
     27 C26        -6.8946   -3.0101    1.9561 C.ar      1 <0>        -0.1208
     28 C27        -6.6193   -3.8530    0.8956 C.ar      1 <0>        -0.1143
     29 C28        -6.1905   -1.7406    3.9952 C.3       1 <0>        -0.1173
     30 C29        -1.4790   -2.5752    1.0796 C.3       1 <0>        -0.1394
     31 O2          1.0164   -1.7437    0.4406 O.3       1 <0>        -0.5419
     32 H1          0.1740    3.0728   -1.0511 H         1 <0>         0.0812
     33 H2         -1.4273    2.6904   -1.7278 H         1 <0>         0.0822
     34 H3         -1.2200    2.8492    0.0329 H         1 <0>         0.0823
     35 H4          0.7308   -1.1944   -2.6825 H         1 <0>         0.0718
     36 H5          1.6938   -2.4077   -1.7930 H         1 <0>         0.0807
     37 H6         -0.9692   -2.7268   -3.1778 H         1 <0>         0.0711
     38 H7          0.3292   -3.9357   -2.9172 H         1 <0>         0.0739
     39 H8         -0.2497   -4.2143   -0.6148 H         1 <0>         0.0784
     40 H9         -2.5969   -0.6680   -0.4522 H         1 <0>         0.0701
     41 H10        -1.9838   -1.1578   -2.0466 H         1 <0>         0.0756
     42 H11        -4.5127   -1.9152   -1.2711 H         1 <0>         0.1124
     43 H12        -2.2472   -5.1645   -0.6536 H         1 <0>         0.0722
     44 H13        -2.0447   -4.5369   -3.6029 H         1 <0>         0.0699
     45 H14        -1.1229   -5.7956   -2.7450 H         1 <0>         0.0745
     46 H15        -3.1766   -6.7163   -3.8299 H         1 <0>         0.0800
     47 H16        -3.2228   -6.8930   -2.0582 H         1 <0>         0.0848
     48 H17        -5.2013   -6.2443   -4.6180 H         1 <0>         0.1346
     49 H18        -7.9103   -3.4685   -2.6773 H         1 <0>         0.0939
     50 H19        -7.4583   -4.9760   -1.8358 H         1 <0>         0.0998
     51 H20        -5.5775   -2.6824   -2.5559 H         1 <0>         0.0734
     52 H21        -6.1861   -3.0541   -0.9297 H         1 <0>         0.1000
     53 H22        -5.9044   -5.9211   -0.6115 H         1 <0>         0.0782
     54 H23        -4.1761   -5.8919   -0.1868 H         1 <0>         0.0788
     55 H24        -3.3409   -4.3960    1.4744 H         1 <0>         0.1252
     56 H25        -3.8296   -2.8888    3.3592 H         1 <0>         0.1198
     57 H26        -7.8930   -2.6212    2.0917 H         1 <0>         0.1202
     58 H27        -7.4024   -4.1217    0.2021 H         1 <0>         0.1219
     59 H28        -6.0262   -0.7079    3.6874 H         1 <0>         0.0698
     60 H29        -7.2287   -1.8675    4.3018 H         1 <0>         0.0657
     61 H30        -5.5330   -1.9796    4.8310 H         1 <0>         0.0658
     62 H31        -1.4532   -1.6327    1.6266 H         1 <0>         0.0538
     63 H32        -2.4612   -3.0341    1.1927 H         1 <0>         0.0749
     64 H33        -0.7167   -3.2461    1.4757 H         1 <0>         0.0618
     65 H34         1.8580   -1.2763    0.3492 H         1 <0>         0.3778
@<TRIPOS>BOND
     1    1    2 1
     2    1   32 1
     3    1   33 1
     4    1   34 1
     5    2    3 3
     6    3    4 1
     7    4    8 1
     8    4    5 1
     9    4   31 1
    10    5    6 1
    11    5   35 1
    12    5   36 1
    13    6    7 1
    14    6   37 1
    15    6   38 1
    16    7   12 1
    17    7    8 1
    18    7   39 1
    19    8    9 1
    20    8   30 1
    21    9   10 1
    22    9   40 1
    23    9   41 1
    24   10   11 2
    25   10   42 1
    26   11   21 1
    27   11   12 1
    28   12   13 1
    29   12   43 1
    30   13   14 1
    31   13   44 1
    32   13   45 1
    33   14   15 1
    34   14   46 1
    35   14   47 1
    36   15   21 1
    37   15   16 2
    38   16   17 1
    39   16   48 1
    40   17   18 2
    41   17   19 1
    42   19   20 1
    43   19   49 1
    44   19   50 1
    45   20   21 1
    46   20   51 1
    47   20   52 1
    48   21   22 1
    49   22   23 1
    50   22   53 1
    51   22   54 1
    52   23   28 ar
    53   23   24 ar
    54   24   25 ar
    55   24   55 1
    56   25   26 ar
    57   25   56 1
    58   26   27 ar
    59   26   29 1
    60   27   28 ar
    61   27   57 1
    62   28   58 1
    63   29   59 1
    64   29   60 1
    65   29   61 1
    66   30   62 1
    67   30   63 1
    68   30   64 1
    69   31   65 1
@<TRIPOS>MOLECULE
CHEMBL197100
   64    67     0     0     0
SMALL
USER_CHARGES

@<TRIPOS>ATOM
      1 C1         -0.0552    1.5112    0.6282 C.3       1 <0>        -0.1416
      2 C2         -0.1339    0.1676   -0.0995 C.3       1 <0>        -0.0033
      3 C3          0.8857   -0.8000    0.5045 C.3       1 <0>        -0.1641
      4 C4         -1.5411   -0.4134    0.0531 C.3       1 <0>        -0.1452
      5 C5         -2.0902   -0.0627    1.4375 C.3       1 <0>         0.1396
      6 C6         -1.1063   -0.5332    2.5106 C.3       1 <0>        -0.0858
      7 C7         -1.7257   -0.3550    3.8728 C.ar      1 <0>        -0.0809
      8 C8         -1.6396    0.8651    4.5169 C.ar      1 <0>        -0.1105
      9 C9         -2.2078    1.0285    5.7665 C.ar      1 <0>        -0.1243
     10 C10        -2.8624   -0.0279    6.3717 C.ar      1 <0>        -0.1210
     11 C11        -2.9492   -1.2477    5.7271 C.ar      1 <0>        -0.1143
     12 C12        -2.3848   -1.4099    4.4757 C.ar      1 <0>        -0.1000
     13 C13        -3.4383   -0.7567    1.6421 C.3       1 <0>         0.0911
     14 N1         -4.0966   -0.2046    2.8287 N.pl3     1 <0>        -0.7147
     15 C14        -5.2731   -0.7758    3.2999 C.ar      1 <0>         0.2695
     16 C15        -5.8222   -1.8762    2.6468 C.ar      1 <0>        -0.2137
     17 C16        -6.9781   -2.4442    3.1025 C.ar      1 <0>         0.0206
     18 C17        -7.6159   -1.9204    4.2305 C.ar      1 <0>        -0.2677
     19 C18        -7.0626   -0.8137    4.8865 C.ar      1 <0>        -0.0490
     20 C19        -5.8988   -0.2498    4.4290 C.ar      1 <0>        -0.1754
     21 C20        -7.9816   -0.5080    6.0417 C.3       1 <0>         0.0898
     22 O1         -9.0375   -1.4714    5.9925 O.3       1 <0>        -0.3205
     23 C21        -8.8422   -2.2971    4.9505 C.2       1 <0>         0.5246
     24 O2         -9.5723   -3.2198    4.6469 O.2       1 <0>        -0.4627
     25 O3         -2.2629    1.3523    1.5370 O.3       1 <0>        -0.5427
     26 C22         0.1702    0.3697   -1.5616 C.ar      1 <0>        -0.0722
     27 C23        -0.7741    0.0425   -2.5157 C.ar      1 <0>        -0.1250
     28 C24        -0.4952    0.2284   -3.8588 C.ar      1 <0>         0.0644
     29 C25         0.7304    0.7420   -4.2482 C.ar      1 <0>        -0.1186
     30 C26         1.6763    1.0699   -3.2965 C.ar      1 <0>        -0.1780
     31 C27         1.3960    0.8895   -1.9498 C.ar      1 <0>         0.1253
     32 O4          2.3239    1.2171   -1.0119 O.3       1 <0>        -0.3022
     33 C28         3.5642    1.7472   -1.4838 C.3       1 <0>         0.0207
     34 F1         -1.4195   -0.0919   -4.7907 F         1 <0>        -0.1404
     35 H1          0.9347    1.9445    0.4851 H         1 <0>         0.0558
     36 H2         -0.8095    2.1873    0.2254 H         1 <0>         0.0573
     37 H3         -0.2348    1.3590    1.6925 H         1 <0>         0.0829
     38 H4          0.6224   -1.0040    1.5424 H         1 <0>         0.0754
     39 H5          0.8818   -1.7317   -0.0612 H         1 <0>         0.0518
     40 H6          1.8792   -0.3537    0.4627 H         1 <0>         0.0710
     41 H7         -2.1926    0.0065   -0.7132 H         1 <0>         0.0794
     42 H8         -1.5008   -1.4969   -0.0580 H         1 <0>         0.0806
     43 H9         -0.8725   -1.5860    2.3526 H         1 <0>         0.0882
     44 H10        -0.1912    0.0556    2.4477 H         1 <0>         0.1076
     45 H11        -1.1282    1.6905    4.0441 H         1 <0>         0.1236
     46 H12        -2.1399    1.9815    6.2701 H         1 <0>         0.1193
     47 H13        -3.3056    0.0996    7.3482 H         1 <0>         0.1179
     48 H14        -3.4604   -2.0732    6.2001 H         1 <0>         0.1164
     49 H15        -2.4559   -2.3618    3.9705 H         1 <0>         0.1135
     50 H16        -4.0680   -0.5924    0.7677 H         1 <0>         0.0660
     51 H17        -3.2792   -1.8263    1.7794 H         1 <0>         0.0757
     52 H18        -3.7115    0.5595    3.2857 H         1 <0>         0.4134
     53 H19        -5.3317   -2.2827    1.7747 H         1 <0>         0.1306
     54 H20        -7.3990   -3.2973    2.5912 H         1 <0>         0.1319
     55 H21        -5.4714    0.6009    4.9390 H         1 <0>         0.1291
     56 H22        -7.4395   -0.5964    6.9832 H         1 <0>         0.1143
     57 H23        -8.3890    0.4977    5.9383 H         1 <0>         0.1143
     58 H24        -2.8753    1.7206    0.8855 H         1 <0>         0.3761
     59 H25        -1.7302   -0.3588   -2.2135 H         1 <0>         0.1457
     60 H26         0.9470    0.8859   -5.2964 H         1 <0>         0.1372
     61 H27         2.6323    1.4701   -3.6004 H         1 <0>         0.1380
     62 H28         4.0483    1.0169   -2.1321 H         1 <0>         0.0562
     63 H29         3.3780    2.6635   -2.0440 H         1 <0>         0.0564
     64 H30         4.2123    1.9657   -0.6351 H         1 <0>         0.1024
@<TRIPOS>BOND
     1    1    2 1
     2    1   35 1
     3    1   36 1
     4    1   37 1
     5    2    3 1
     6    2    4 1
     7    2   26 1
     8    3   38 1
     9    3   39 1
    10    3   40 1
    11    4    5 1
    12    4   41 1
    13    4   42 1
    14    5    6 1
    15    5   13 1
    16    5   25 1
    17    6    7 1
    18    6   43 1
    19    6   44 1
    20    7   12 ar
    21    7    8 ar
    22    8    9 ar
    23    8   45 1
    24    9   10 ar
    25    9   46 1
    26   10   11 ar
    27   10   47 1
    28   11   12 ar
    29   11   48 1
    30   12   49 1
    31   13   14 1
    32   13   50 1
    33   13   51 1
    34   14   15 1
    35   14   52 1
    36   15   20 ar
    37   15   16 ar
    38   16   17 ar
    39   16   53 1
    40   17   18 ar
    41   17   54 1
    42   18   23 1
    43   18   19 ar
    44   19   20 ar
    45   19   21 1
    46   20   55 1
    47   21   22 1
    48   21   56 1
    49   21   57 1
    50   22   23 1
    51   23   24 2
    52   25   58 1
    53   26   31 ar
    54   26   27 ar
    55   27   28 ar
    56   27   59 1
    57   28   29 ar
    58   28   34 1
    59   29   30 ar
    60   29   60 1
    61   30   31 ar
    62   30   61 1
    63   31   32 1
    64   32   33 1
    65   33   62 1
    66   33   63 1
    67   33   64 1
@<TRIPOS>MOLECULE
CHEMBL197100__1
   64    67     0     0     0
SMALL
USER_CHARGES

@<TRIPOS>ATOM
      1 C1         -0.2342   -1.5978    0.2993 C.3       1 <0>        -0.1576
      2 C2         -0.7234   -0.9534   -0.9993 C.3       1 <0>        -0.0096
      3 C3         -1.9062   -1.7520   -1.5509 C.3       1 <0>        -0.1685
      4 C4         -1.1649    0.4847   -0.7202 C.3       1 <0>        -0.1316
      5 C5         -2.0328    0.5164    0.5394 C.3       1 <0>         0.1413
      6 C6         -2.6530    1.9062    0.6965 C.3       1 <0>        -0.0732
      7 C7         -1.5644    2.9480    0.6700 C.ar      1 <0>        -0.0771
      8 C8         -0.8748    3.2568    1.8277 C.ar      1 <0>        -0.0960
      9 C9          0.1237    4.2124    1.8034 C.ar      1 <0>        -0.1206
     10 C10         0.4330    4.8590    0.6213 C.ar      1 <0>        -0.1213
     11 C11        -0.2560    4.5496   -0.5365 C.ar      1 <0>        -0.1207
     12 C12        -1.2516    3.5909   -0.5131 C.ar      1 <0>        -0.1199
     13 C13        -3.1447   -0.5276    0.4191 C.3       1 <0>         0.0756
     14 N1         -4.2155   -0.2122    1.3678 N.pl3     1 <0>        -0.7319
     15 C14        -5.3404   -1.0255    1.4419 C.ar      1 <0>         0.2610
     16 C15        -5.4460   -2.1431    0.6179 C.ar      1 <0>        -0.2092
     17 C16        -6.5477   -2.9482    0.6837 C.ar      1 <0>         0.0210
     18 C17        -7.5767   -2.6516    1.5819 C.ar      1 <0>        -0.2628
     19 C18        -7.4692   -1.5273    2.4100 C.ar      1 <0>        -0.0493
     20 C19        -6.3588   -0.7247    2.3449 C.ar      1 <0>        -0.1796
     21 C20        -8.7260   -1.4972    3.2419 C.3       1 <0>         0.0895
     22 O1         -9.5089   -2.6262    2.8442 O.3       1 <0>        -0.3193
     23 C21        -8.8592   -3.3058    1.8841 C.2       1 <0>         0.5247
     24 O2         -9.2712   -4.3134    1.3440 O.2       1 <0>        -0.4601
     25 O3         -1.2256    0.2232    1.6816 O.3       1 <0>        -0.5552
     26 C22         0.3945   -0.9486   -2.0099 C.ar      1 <0>        -0.0713
     27 C23         0.8587    0.2481   -2.5213 C.ar      1 <0>        -0.1183
     28 C24         1.8859    0.2529   -3.4493 C.ar      1 <0>         0.0655
     29 C25         2.4493   -0.9412   -3.8667 C.ar      1 <0>        -0.1173
     30 C26         1.9871   -2.1390   -3.3570 C.ar      1 <0>        -0.1778
     31 C27         0.9617   -2.1449   -2.4227 C.ar      1 <0>         0.1229
     32 O4          0.5097   -3.3227   -1.9161 O.3       1 <0>        -0.3039
     33 C28         1.1401   -4.5158   -2.3864 C.3       1 <0>         0.0206
     34 F1          2.3389    1.4237   -3.9486 F         1 <0>        -0.1395
     35 H1          0.3294   -2.5014    0.0667 H         1 <0>         0.0717
     36 H2          0.4072   -0.8969    0.8336 H         1 <0>         0.0752
     37 H3         -1.0907   -1.8543    0.9228 H         1 <0>         0.0565
     38 H4         -2.5659   -2.0371   -0.7314 H         1 <0>         0.0732
     39 H5         -2.4570   -1.1393   -2.2645 H         1 <0>         0.0577
     40 H6         -1.5381   -2.6486   -2.0498 H         1 <0>         0.0726
     41 H7         -0.2861    1.1122   -0.5718 H         1 <0>         0.0900
     42 H8         -1.7399    0.8591   -1.5671 H         1 <0>         0.0769
     43 H9         -3.3497    2.0878   -0.1218 H         1 <0>         0.0870
     44 H10        -3.1855    1.9612    1.6460 H         1 <0>         0.0781
     45 H11        -1.1165    2.7516    2.7511 H         1 <0>         0.1224
     46 H12         0.6619    4.4541    2.7079 H         1 <0>         0.1197
     47 H13         1.2126    5.6061    0.6025 H         1 <0>         0.1194
     48 H14        -0.0146    5.0550   -1.4599 H         1 <0>         0.1204
     49 H15        -1.7873    3.3465   -1.4184 H         1 <0>         0.1182
     50 H16        -3.5436   -0.5183   -0.5952 H         1 <0>         0.0863
     51 H17        -2.7412   -1.5154    0.6418 H         1 <0>         0.0875
     52 H18        -4.1395    0.5642    1.9443 H         1 <0>         0.4056
     53 H19        -4.6526   -2.3745   -0.0773 H         1 <0>         0.1328
     54 H20        -6.6237   -3.8133    0.0416 H         1 <0>         0.1348
     55 H21        -6.2759    0.1394    2.9875 H         1 <0>         0.1332
     56 H22        -8.4749   -1.5715    4.3000 H         1 <0>         0.1161
     57 H23        -9.2768   -0.5759    3.0525 H         1 <0>         0.1162
     58 H24        -1.1812   -0.7176    1.9007 H         1 <0>         0.3797
     59 H25         0.4197    1.1801   -2.1972 H         1 <0>         0.1459
     60 H26         3.2501   -0.9360   -4.5912 H         1 <0>         0.1376
     61 H27         2.4264   -3.0702   -3.6830 H         1 <0>         0.1384
     62 H28         1.0121   -4.5930   -3.4661 H         1 <0>         0.0568
     63 H29         2.2032   -4.4832   -2.1480 H         1 <0>         0.0568
     64 H30         0.6859   -5.3812   -1.9038 H         1 <0>         0.1028
@<TRIPOS>BOND
     1    1    2 1
     2    1   35 1
     3    1   36 1
     4    1   37 1
     5    2    3 1
     6    2    4 1
     7    2   26 1
     8    3   38 1
     9    3   39 1
    10    3   40 1
    11    4    5 1
    12    4   41 1
    13    4   42 1
    14    5    6 1
    15    5   13 1
    16    5   25 1
    17    6    7 1
    18    6   43 1
    19    6   44 1
    20    7   12 ar
    21    7    8 ar
    22    8    9 ar
    23    8   45 1
    24    9   10 ar
    25    9   46 1
    26   10   11 ar
    27   10   47 1
    28   11   12 ar
    29   11   48 1
    30   12   49 1
    31   13   14 1
    32   13   50 1
    33   13   51 1
    34   14   15 1
    35   14   52 1
    36   15   20 ar
    37   15   16 ar
    38   16   17 ar
    39   16   53 1
    40   17   18 ar
    41   17   54 1
    42   18   23 1
    43   18   19 ar
    44   19   20 ar
    45   19   21 1
    46   20   55 1
    47   21   22 1
    48   21   56 1
    49   21   57 1
    50   22   23 1
    51   23   24 2
    52   25   58 1
    53   26   31 ar
    54   26   27 ar
    55   27   28 ar
    56   27   59 1
    57   28   29 ar
    58   28   34 1
    59   29   30 ar
    60   29   60 1
    61   30   31 ar
    62   30   61 1
    63   31   32 1
    64   32   33 1
    65   33   62 1
    66   33   63 1
    67   33   64 1
@<TRIPOS>MOLECULE
CHEMBL243455
   70    75     0     0     0
SMALL
USER_CHARGES

@<TRIPOS>ATOM
      1 C1         -0.0063    2.0725   -0.3493 C.3       1 <0>        -0.1204
      2 C2         -0.1106    0.5748   -0.5014 C.2       1 <0>        -0.0603
      3 C3         -0.0927    0.0935   -1.7439 C.2       1 <0>        -0.1639
      4 C4         -0.2672   -1.3621   -2.0597 C.3       1 <0>         0.2136
      5 N1         -0.0172   -2.1894   -0.8801 N.pl3     1 <0>        -0.7332
      6 C5         -0.2769   -1.7113    0.3985 C.ar      1 <0>         0.2273
      7 C6         -0.2283   -0.3229    0.6537 C.ar      1 <0>        -0.0598
      8 C7         -0.2272    0.0839    1.9813 C.ar      1 <0>        -0.0327
      9 C8         -0.7582   -0.7865    2.9871 C.ar      1 <0>        -0.0852
     10 C9         -0.8941   -2.1289    2.6903 C.ar      1 <0>        -0.0514
     11 C10        -0.5975   -2.5911    1.4186 C.ar      1 <0>        -0.1840
     12 C11        -1.1306   -0.1691    4.2759 C.ar      1 <0>        -0.0848
     13 C12        -0.9861    1.2235    4.4316 C.ar      1 <0>         0.1132
     14 C13        -1.3500    1.8428    5.6163 C.ar      1 <0>        -0.1184
     15 C14        -1.8409    1.0976    6.6695 C.ar      1 <0>        -0.1018
     16 C15        -1.9701   -0.2743    6.5417 C.ar      1 <0>         0.0713
     17 C16        -1.6166   -0.9102    5.3530 C.ar      1 <0>         0.1075
     18 O1         -1.7556   -2.2612    5.2950 O.3       1 <0>        -0.3260
     19 C17        -0.6349   -3.0469    5.7059 C.3       1 <0>         0.0324
     20 O2         -2.4444   -1.0144    7.5821 O.3       1 <0>        -0.4881
     21 O3         -0.4641    1.9848    3.4288 O.3       1 <0>        -0.2349
     22 C18         0.3265    1.3203    2.5398 C.2       1 <0>         0.1217
     23 C19         1.5906    1.7499    2.2739 C.2       1 <0>        -0.0805
     24 C20         2.0629    2.9525    2.8456 C.2       1 <0>        -0.0515
     25 C21         3.3181    3.5673    2.6954 C.2       1 <0>        -0.1763
     26 C22         3.5191    4.8029    3.4059 C.2       1 <0>        -0.1310
     27 C23         2.5113    5.2855    4.1570 C.2       1 <0>        -0.1953
     28 S1          1.2161    4.0816    3.9355 S.3       1 <0>         0.1217
     29 C24         4.3669    2.9809    1.8598 C.2       1 <0>         0.5806
     30 O4          4.1008    2.5782    0.7420 O.2       1 <0>        -0.5337
     31 N2          5.6274    2.8868    2.3277 N.am      1 <0>        -0.6063
     32 C25         5.9392    3.2491    3.7170 C.3       1 <0>         0.1030
     33 C26         6.6652    2.0752    4.3816 C.3       1 <0>        -0.1362
     34 C27         7.8868    1.6948    3.5420 C.3       1 <0>        -0.1208
     35 C28         7.4331    1.2553    2.1480 C.3       1 <0>        -0.1352
     36 C29         6.7147    2.4141    1.4599 C.3       1 <0>         0.1107
     37 C30        -1.6962   -1.6060   -2.5570 C.3       1 <0>        -0.1595
     38 C31         0.7151   -1.7569   -3.1690 C.3       1 <0>        -0.1550
     39 H1          1.0427    2.3572   -0.2674 H         1 <0>         0.0786
     40 H2         -0.4475    2.5577   -1.2199 H         1 <0>         0.0679
     41 H3         -0.5387    2.3844    0.5493 H         1 <0>         0.0652
     42 H4          0.0536    0.7930   -2.5603 H         1 <0>         0.1282
     43 H5          0.3388   -3.0955   -0.9934 H         1 <0>         0.4051
     44 H6         -1.2261   -2.8494    3.4191 H         1 <0>         0.1449
     45 H7         -0.6225   -3.6536    1.2198 H         1 <0>         0.1296
     46 H8         -1.2485    2.9134    5.7153 H         1 <0>         0.1449
     47 H9         -2.1221    1.5838    7.5904 H         1 <0>         0.1462
     48 H10        -0.8785   -4.1050    5.6106 H         1 <0>         0.0984
     49 H11         0.2232   -2.8134    5.0756 H         1 <0>         0.0482
     50 H12        -0.3946   -2.8215    6.7449 H         1 <0>         0.0545
     51 H13        -3.4053   -1.1225    7.5821 H         1 <0>         0.3931
     52 H14         2.2324    1.1715    1.6258 H         1 <0>         0.1625
     53 H15         4.4584    5.3315    3.3381 H         1 <0>         0.1384
     54 H16         2.4914    6.1883    4.7495 H         1 <0>         0.1891
     55 H17         6.5809    4.1300    3.7297 H         1 <0>         0.0697
     56 H18         5.0153    3.4597    4.2558 H         1 <0>         0.0920
     57 H19         6.9872    2.3658    5.3816 H         1 <0>         0.0769
     58 H20         5.9905    1.2218    4.4498 H         1 <0>         0.0666
     59 H21         8.5491    2.5561    3.4535 H         1 <0>         0.0653
     60 H22         8.4191    0.8758    4.0256 H         1 <0>         0.0666
     61 H23         8.3016    0.9623    1.5583 H         1 <0>         0.0766
     62 H24         6.7512    0.4096    2.2372 H         1 <0>         0.0660
     63 H25         6.3024    2.0740    0.5099 H         1 <0>         0.0934
     64 H26         7.4211    3.2255    1.2844 H         1 <0>         0.0680
     65 H27        -1.8744   -1.0144   -3.4550 H         1 <0>         0.0675
     66 H28        -1.8253   -2.6636   -2.7871 H         1 <0>         0.0613
     67 H29        -2.4054   -1.3135   -1.7826 H         1 <0>         0.0571
     68 H30         1.7357   -1.5748   -2.8323 H         1 <0>         0.0639
     69 H31         0.5930   -2.8144   -3.4031 H         1 <0>         0.0630
     70 H32         0.5150   -1.1620   -4.0602 H         1 <0>         0.0742
@<TRIPOS>BOND
     1    1    2 1
     2    1   39 1
     3    1   40 1
     4    1   41 1
     5    2    7 1
     6    2    3 2
     7    3    4 1
     8    3   42 1
     9    4    5 1
    10    4   37 1
    11    4   38 1
    12    5    6 1
    13    5   43 1
    14    6   11 ar
    15    6    7 ar
    16    7    8 ar
    17    8   22 1
    18    8    9 ar
    19    9   10 ar
    20    9   12 1
    21   10   11 ar
    22   10   44 1
    23   11   45 1
    24   12   17 ar
    25   12   13 ar
    26   13   14 ar
    27   13   21 1
    28   14   15 ar
    29   14   46 1
    30   15   16 ar
    31   15   47 1
    32   16   17 ar
    33   16   20 1
    34   17   18 1
    35   18   19 1
    36   19   48 1
    37   19   49 1
    38   19   50 1
    39   20   51 1
    40   21   22 1
    41   22   23 2
    42   23   24 1
    43   23   52 1
    44   24   28 1
    45   24   25 2
    46   25   26 1
    47   25   29 1
    48   26   27 2
    49   26   53 1
    50   27   28 1
    51   27   54 1
    52   29   30 2
    53   29   31 am
    54   31   36 1
    55   31   32 1
    56   32   33 1
    57   32   55 1
    58   32   56 1
    59   33   34 1
    60   33   57 1
    61   33   58 1
    62   34   35 1
    63   34   59 1
    64   34   60 1
    65   35   36 1
    66   35   61 1
    67   35   62 1
    68   36   63 1
    69   36   64 1
    70   37   65 1
    71   37   66 1
    72   37   67 1
    73   38   68 1
    74   38   69 1
    75   38   70 1
@<TRIPOS>MOLECULE
CHEMBL218976
   57    59     0     0     0
SMALL
USER_CHARGES

@<TRIPOS>ATOM
      1 C1          0.9633   -0.6343    1.1286 C.3       1 <0>        -0.1533
      2 C2          0.0185   -0.7950   -0.0641 C.3       1 <0>        -0.0128
      3 C3          0.3107   -2.1200   -0.7712 C.3       1 <0>        -0.1354
      4 C4         -1.4301   -0.7882    0.4282 C.3       1 <0>        -0.1540
      5 C5         -1.5647    0.1818    1.6037 C.3       1 <0>         0.0781
      6 C6         -2.9861    0.1085    2.1652 C.3       1 <0>         0.0987
      7 N1         -3.1277    1.0688    3.2624 N.pl3     1 <0>        -0.6259
      8 C7         -2.5118    0.8048    4.5699 C.3       1 <0>         0.1372
      9 C8         -3.5450    1.1446    5.6521 C.3       1 <0>        -0.1377
     10 C9         -3.8655    2.6373    5.5772 C.3       1 <0>        -0.0715
     11 C10        -4.2257    3.0291    4.1685 C.ar      1 <0>        -0.1484
     12 C11        -3.8470    2.2551    3.0807 C.ar      1 <0>         0.2261
     13 C12        -4.1866    2.6502    1.7917 C.ar      1 <0>        -0.2004
     14 C13        -4.8990    3.8159    1.5913 C.ar      1 <0>        -0.0774
     15 C14        -5.2742    4.5894    2.6742 C.ar      1 <0>        -0.1710
     16 C15        -4.9459    4.1931    3.9603 C.ar      1 <0>        -0.0787
     17 C16        -1.2783    1.6064    1.1247 C.3       1 <0>         0.4672
     18 F1         -2.0966    1.9035    0.0295 F         1 <0>        -0.1717
     19 F2         -1.5408    2.5085    2.1613 F         1 <0>        -0.1633
     20 F3          0.0643    1.7098    0.7454 F         1 <0>        -0.1568
     21 O1         -0.6303   -0.1744    2.6246 O.3       1 <0>        -0.5219
     22 C17         0.2271    0.3450   -1.0274 C.ar      1 <0>        -0.0655
     23 C18        -0.8490    0.8781   -1.7108 C.ar      1 <0>        -0.1332
     24 C19        -0.6579    1.9257   -2.5953 C.ar      1 <0>         0.0691
     25 C20         0.6117    2.4404   -2.7969 C.ar      1 <0>        -0.1223
     26 C21         1.6893    1.9094   -2.1151 C.ar      1 <0>        -0.1780
     27 C22         1.4983    0.8634   -1.2241 C.ar      1 <0>         0.1284
     28 O2          2.5571    0.3435   -0.5481 O.3       1 <0>        -0.2949
     29 C23         3.8372    0.9266   -0.8001 C.3       1 <0>         0.0158
     30 F4         -1.7109    2.4460   -3.2629 F         1 <0>        -0.1402
     31 H1          1.9899   -0.8050    0.8045 H         1 <0>         0.0668
     32 H2          0.8723    0.3748    1.5307 H         1 <0>         0.0945
     33 H3          0.7007   -1.3580    1.9002 H         1 <0>         0.0552
     34 H4          0.0758   -2.9482   -0.1025 H         1 <0>         0.0604
     35 H5         -0.3008   -2.1945   -1.6705 H         1 <0>         0.0545
     36 H6          1.3651   -2.1614   -1.0443 H         1 <0>         0.0635
     37 H7         -2.0875   -0.4714   -0.3815 H         1 <0>         0.0927
     38 H8         -1.7088   -1.7913    0.7511 H         1 <0>         0.0964
     39 H9         -3.7006    0.3486    1.3778 H         1 <0>         0.0984
     40 H10        -3.1787   -0.8981    2.5361 H         1 <0>         0.0930
     41 H11        -2.2343   -0.2469    4.6417 H         1 <0>         0.0753
     42 H12        -1.6276    1.4299    4.6944 H         1 <0>         0.0646
     43 H13        -4.4539    0.5670    5.4834 H         1 <0>         0.0680
     44 H14        -3.1365    0.9076    6.6344 H         1 <0>         0.0771
     45 H15        -4.7031    2.8596    6.2383 H         1 <0>         0.0731
     46 H16        -2.9951    3.2092    5.8989 H         1 <0>         0.0706
     47 H17        -3.8928    2.0453    0.9467 H         1 <0>         0.1221
     48 H18        -5.1624    4.1232    0.5900 H         1 <0>         0.1189
     49 H19        -5.8325    5.5006    2.5177 H         1 <0>         0.1172
     50 H20        -5.2410    4.8006    4.8032 H         1 <0>         0.1191
     51 H21        -0.7528   -1.0670    2.9757 H         1 <0>         0.3864
     52 H22        -1.8396    0.4771   -1.5550 H         1 <0>         0.1447
     53 H23         0.7596    3.2572   -3.4878 H         1 <0>         0.1355
     54 H24         2.6794    2.3108   -2.2728 H         1 <0>         0.1363
     55 H25         4.5919    0.4201   -0.1983 H         1 <0>         0.1003
     56 H26         4.0833    0.8201   -1.8565 H         1 <0>         0.0543
     57 H27         3.8127    1.9842   -0.5374 H         1 <0>         0.0550
@<TRIPOS>BOND
     1    1    2 1
     2    1   31 1
     3    1   32 1
     4    1   33 1
     5    2    3 1
     6    2    4 1
     7    2   22 1
     8    3   34 1
     9    3   35 1
    10    3   36 1
    11    4    5 1
    12    4   37 1
    13    4   38 1
    14    5    6 1
    15    5   17 1
    16    5   21 1
    17    6    7 1
    18    6   39 1
    19    6   40 1
    20    7   12 1
    21    7    8 1
    22    8    9 1
    23    8   41 1
    24    8   42 1
    25    9   10 1
    26    9   43 1
    27    9   44 1
    28   10   11 1
    29   10   45 1
    30   10   46 1
    31   11   16 ar
    32   11   12 ar
    33   12   13 ar
    34   13   14 ar
    35   13   47 1
    36   14   15 ar
    37   14   48 1
    38   15   16 ar
    39   15   49 1
    40   16   50 1
    41   17   18 1
    42   17   19 1
    43   17   20 1
    44   21   51 1
    45   22   27 ar
    46   22   23 ar
    47   23   24 ar
    48   23   52 1
    49   24   25 ar
    50   24   30 1
    51   25   26 ar
    52   25   53 1
    53   26   27 ar
    54   26   54 1
    55   27   28 1
    56   28   29 1
    57   29   55 1
    58   29   56 1
    59   29   57 1
@<TRIPOS>MOLECULE
CHEMBL218976__1
   57    59     0     0     0
SMALL
USER_CHARGES

@<TRIPOS>ATOM
      1 C1         -0.2339    0.6892   -1.9542 C.3       1 <0>        -0.1369
      2 C2         -0.3842    0.8429   -0.4394 C.3       1 <0>        -0.0110
      3 C3         -0.6620    2.3088   -0.1006 C.3       1 <0>        -0.1530
      4 C4         -1.5479   -0.0225    0.0481 C.3       1 <0>        -0.1555
      5 C5         -2.1622    0.6070    1.3000 C.3       1 <0>         0.0779
      6 C6         -3.3939   -0.1962    1.7228 C.3       1 <0>         0.0951
      7 N1         -4.0207    0.4447    2.8815 N.pl3     1 <0>        -0.6270
      8 C7         -4.9606    1.5594    2.7006 C.3       1 <0>         0.1349
      9 C8         -4.6047    2.6438    3.7261 C.3       1 <0>        -0.1343
     10 C9         -4.8102    2.0802    5.1320 C.3       1 <0>        -0.0716
     11 C10        -4.0945    0.7636    5.2819 C.ar      1 <0>        -0.1432
     12 C11        -3.7384    0.0015    4.1783 C.ar      1 <0>         0.2253
     13 C12        -3.0874   -1.2148    4.3514 C.ar      1 <0>        -0.1967
     14 C13        -2.7969   -1.6682    5.6227 C.ar      1 <0>        -0.0767
     15 C14        -3.1539   -0.9111    6.7232 C.ar      1 <0>        -0.1706
     16 C15        -3.7937    0.3058    6.5535 C.ar      1 <0>        -0.0788
     17 C16        -1.1338    0.5976    2.4327 C.3       1 <0>         0.4650
     18 F1          0.0127    1.2893    2.0273 F         1 <0>        -0.1555
     19 F2         -1.6781    1.2185    3.5620 F         1 <0>        -0.1611
     20 F3         -0.7955   -0.7236    2.7445 F         1 <0>        -0.1723
     21 O1         -2.5462    1.9539    1.0164 O.3       1 <0>        -0.5177
     22 C17         0.8876    0.4028    0.2389 C.ar      1 <0>        -0.0470
     23 C18         0.8961   -0.7379    1.0184 C.ar      1 <0>        -0.1569
     24 C19         2.0643   -1.1427    1.6412 C.ar      1 <0>         0.0748
     25 C20         3.2256   -0.4049    1.4842 C.ar      1 <0>        -0.1277
     26 C21         3.2199    0.7359    0.7055 C.ar      1 <0>        -0.1718
     27 C22         2.0513    1.1395    0.0762 C.ar      1 <0>         0.1161
     28 O2          2.0456    2.2590   -0.6951 O.3       1 <0>        -0.3020
     29 C23         3.2800    2.9684   -0.8180 C.3       1 <0>         0.0211
     30 F4          2.0713   -2.2584    2.4031 F         1 <0>        -0.1395
     31 H1          0.5358    1.3720   -2.3141 H         1 <0>         0.0692
     32 H2          0.0516   -0.3363   -2.1888 H         1 <0>         0.0528
     33 H3         -1.1819    0.9223   -2.4389 H         1 <0>         0.0591
     34 H4         -1.6114    2.6104   -0.5430 H         1 <0>         0.0587
     35 H5         -0.7111    2.4286    0.9817 H         1 <0>         0.0932
     36 H6          0.1388    2.9319   -0.4991 H         1 <0>         0.0587
     37 H7         -2.3043   -0.0883   -0.7340 H         1 <0>         0.0967
     38 H8         -1.1830   -1.0218    0.2856 H         1 <0>         0.0929
     39 H9         -4.1056   -0.2312    0.8979 H         1 <0>         0.0970
     40 H10        -3.0935   -1.2101    1.9867 H         1 <0>         0.0988
     41 H11        -4.8674    1.9607    1.6915 H         1 <0>         0.0768
     42 H12        -5.9805    1.2132    2.8683 H         1 <0>         0.0574
     43 H13        -3.5630    2.9384    3.5994 H         1 <0>         0.0771
     44 H14        -5.2512    3.5094    3.5815 H         1 <0>         0.0742
     45 H15        -4.4206    2.7874    5.8642 H         1 <0>         0.0726
     46 H16        -5.8757    1.9332    5.3090 H         1 <0>         0.0689
     47 H17        -2.8092   -1.8053    3.4910 H         1 <0>         0.1185
     48 H18        -2.2917   -2.6132    5.7574 H         1 <0>         0.1191
     49 H19        -2.9257   -1.2651    7.7176 H         1 <0>         0.1171
     50 H20        -4.0709    0.8937    7.4160 H         1 <0>         0.1188
     51 H21        -3.2540    2.0317    0.3622 H         1 <0>         0.3820
     52 H22        -0.0091   -1.3139    1.1422 H         1 <0>         0.1545
     53 H23         4.1361   -0.7215    1.9712 H         1 <0>         0.1355
     54 H24         4.1257    1.3113    0.5836 H         1 <0>         0.1364
     55 H25         3.1367    3.8386   -1.4586 H         1 <0>         0.1007
     56 H26         3.6119    3.2937    0.1679 H         1 <0>         0.0551
     57 H27         4.0329    2.3139   -1.2573 H         1 <0>         0.0548
@<TRIPOS>BOND
     1    1    2 1
     2    1   31 1
     3    1   32 1
     4    1   33 1
     5    2    3 1
     6    2    4 1
     7    2   22 1
     8    3   34 1
     9    3   35 1
    10    3   36 1
    11    4    5 1
    12    4   37 1
    13    4   38 1
    14    5    6 1
    15    5   17 1
    16    5   21 1
    17    6    7 1
    18    6   39 1
    19    6   40 1
    20    7   12 1
    21    7    8 1
    22    8    9 1
    23    8   41 1
    24    8   42 1
    25    9   10 1
    26    9   43 1
    27    9   44 1
    28   10   11 1
    29   10   45 1
    30   10   46 1
    31   11   16 ar
    32   11   12 ar
    33   12   13 ar
    34   13   14 ar
    35   13   47 1
    36   14   15 ar
    37   14   48 1
    38   15   16 ar
    39   15   49 1
    40   16   50 1
    41   17   18 1
    42   17   19 1
    43   17   20 1
    44   21   51 1
    45   22   27 ar
    46   22   23 ar
    47   23   24 ar
    48   23   52 1
    49   24   25 ar
    50   24   30 1
    51   25   26 ar
    52   25   53 1
    53   26   27 ar
    54   26   54 1
    55   27   28 1
    56   28   29 1
    57   29   55 1
    58   29   56 1
    59   29   57 1
@<TRIPOS>MOLECULE
CHEMBL239957
   41    44     0     0     0
SMALL
USER_CHARGES

@<TRIPOS>ATOM
      1 C1          0.6124    1.4569   -0.1334 C.3       1 <0>         0.0535
      2 N1          1.4240    0.2418   -0.0278 N.pl3     1 <0>        -0.4135
      3 C2          1.9807   -0.4472   -1.0818 C.2       1 <0>         0.0635
      4 C3          2.6675   -1.5297   -0.5687 C.2       1 <0>        -0.1080
      5 C4          2.5252   -1.4966    0.8180 C.2       1 <0>        -0.1708
      6 C5          1.7606   -0.3945    1.1336 C.2       1 <0>         0.0868
      7 C6          1.3689    0.0254    2.4946 C.ar      1 <0>         0.0002
      8 C7          0.9914    1.3496    2.7366 C.ar      1 <0>        -0.1083
      9 C8          0.6257    1.7439    4.0048 C.ar      1 <0>        -0.0848
     10 C9          0.6311    0.8261    5.0471 C.ar      1 <0>         0.0772
     11 C10         1.0076   -0.4997    4.8119 C.ar      1 <0>         0.0852
     12 C11         1.3700   -0.9008    3.5383 C.ar      1 <0>        -0.0713
     13 N2          0.9137   -1.1666    6.0313 N.pl3     1 <0>        -0.4607
     14 C12         0.4998   -0.2880    6.9636 C.2       1 <0>         0.4962
     15 S1          0.2395   -0.6536    8.6158 S.2       1 <0>        -0.5666
     16 N3          0.3211    0.9214    6.4001 N.pl3     1 <0>        -0.5762
     17 H1          0.0266    1.7233    6.8595 H         1 <0>         0.4477
     18 C13         1.2137   -2.5822    6.2600 C.3       1 <0>         0.1433
     19 C14         2.5340   -2.7225    7.0455 C.3       1 <0>        -0.1314
     20 C15         2.0852   -2.8581    8.5217 C.3       1 <0>        -0.1457
     21 C16         0.8067   -3.7256    8.4120 C.3       1 <0>        -0.1010
     22 C17         0.1155   -3.2200    7.1289 C.3       1 <0>        -0.1347
     23 C18         1.8667   -0.1024   -2.4670 C.1       1 <0>         0.2746
     24 N4          1.7763    0.1711   -3.5658 N.1       1 <0>        -0.3989
     25 H2          1.2476    2.3315    0.0072 H         1 <0>         0.0878
     26 H3          0.1484    1.4994   -1.1188 H         1 <0>         0.0898
     27 H4         -0.1626    1.4438    0.6329 H         1 <0>         0.0992
     28 H5          3.2144   -2.2672   -1.1373 H         1 <0>         0.1561
     29 H6          2.9424   -2.2047    1.5186 H         1 <0>         0.1537
     30 H7          0.9868    2.0650    1.9276 H         1 <0>         0.1434
     31 H8          0.3348    2.7676    4.1888 H         1 <0>         0.1427
     32 H9          1.6569   -1.9255    3.3535 H         1 <0>         0.1448
     33 H10         1.2876   -3.1066    5.3073 H         1 <0>         0.1071
     34 H11         3.0741   -3.6142    6.7275 H         1 <0>         0.0831
     35 H12         3.1519   -1.8341    6.9147 H         1 <0>         0.0676
     36 H13         2.8475   -3.3665    9.1121 H         1 <0>         0.0569
     37 H14         1.8539   -1.8812    8.9464 H         1 <0>         0.1192
     38 H15         1.0680   -4.7793    8.3147 H         1 <0>         0.0561
     39 H16         0.1641   -3.5693    9.2784 H         1 <0>         0.0731
     40 H17        -0.6407   -2.4763    7.3804 H         1 <0>         0.0936
     41 H18        -0.3430   -4.0545    6.5982 H         1 <0>         0.0696
@<TRIPOS>BOND
     1    1    2 1
     2    1   25 1
     3    1   26 1
     4    1   27 1
     5    2    6 1
     6    2    3 1
     7    3    4 2
     8    3   23 1
     9    4    5 1
    10    4   28 1
    11    5    6 2
    12    5   29 1
    13    6    7 1
    14    7   12 ar
    15    7    8 ar
    16    8    9 ar
    17    8   30 1
    18    9   10 ar
    19    9   31 1
    20   10   16 1
    21   10   11 ar
    22   11   12 ar
    23   11   13 1
    24   12   32 1
    25   13   14 1
    26   13   18 1
    27   14   15 2
    28   14   16 1
    29   16   17 1
    30   18   22 1
    31   18   19 1
    32   18   33 1
    33   19   20 1
    34   19   34 1
    35   19   35 1
    36   20   21 1
    37   20   36 1
    38   20   37 1
    39   21   22 1
    40   21   38 1
    41   21   39 1
    42   22   40 1
    43   22   41 1
    44   23   24 3
@<TRIPOS>MOLECULE
CHEMBL373498
   51    53     0     0     0
SMALL
USER_CHARGES

@<TRIPOS>ATOM
      1 C1          0.8487    0.1134    0.7990 C.3       1 <0>        -0.1595
      2 C2         -0.1117   -0.1321   -0.3664 C.3       1 <0>        -0.0127
      3 C3          0.3609   -1.3453   -1.1700 C.3       1 <0>        -0.1356
      4 C4         -1.5169   -0.3968    0.1778 C.3       1 <0>        -0.1539
      5 C5         -1.7352    0.4269    1.4485 C.3       1 <0>         0.0813
      6 C6         -3.0991    0.0835    2.0509 C.3       1 <0>         0.0831
      7 N1         -3.3599    0.9562    3.1984 N.pl3     1 <0>        -0.4977
      8 C7         -3.1071    0.6688    4.5038 C.2       1 <0>         0.2672
      9 N2         -3.4604    1.6681    5.2583 N.2       1 <0>        -0.4892
     10 C8         -3.9644    2.6662    4.4878 C.ar      1 <0>         0.0400
     11 C9         -3.9021    2.2251    3.1548 C.ar      1 <0>         0.0741
     12 C10        -4.3506    3.0501    2.1328 C.ar      1 <0>        -0.1277
     13 C11        -4.8521    4.2989    2.4335 C.ar      1 <0>        -0.0970
     14 C12        -4.9103    4.7351    3.7492 C.ar      1 <0>        -0.1318
     15 C13        -4.4795    3.9339    4.7688 C.ar      1 <0>        -0.0616
     16 C14        -1.6903    1.9170    1.1044 C.3       1 <0>         0.4610
     17 F1         -2.6654    2.2032    0.1428 F         1 <0>        -0.1703
     18 F2         -1.9375    2.6696    2.2575 F         1 <0>        -0.1573
     19 F3         -0.4270    2.2408    0.5981 F         1 <0>        -0.1488
     20 O1         -0.7073    0.1253    2.3942 O.3       1 <0>        -0.5176
     21 C15        -0.1392    1.0819   -1.2590 C.ar      1 <0>        -0.0593
     22 C16        -1.3203    1.4697   -1.8621 C.ar      1 <0>        -0.1416
     23 C17        -1.3460    2.5851   -2.6816 C.ar      1 <0>         0.0728
     24 C18        -0.1883    3.3133   -2.8985 C.ar      1 <0>        -0.1234
     25 C19         0.9938    2.9278   -2.2968 C.ar      1 <0>        -0.1741
     26 C20         1.0197    1.8136   -1.4708 C.ar      1 <0>         0.1252
     27 O2          2.1812    1.4364   -0.8735 O.3       1 <0>        -0.2948
     28 C21         3.3356    2.2365   -1.1364 C.3       1 <0>         0.0151
     29 F4         -2.5015    2.9632   -3.2708 F         1 <0>        -0.1396
     30 H1          1.8698    0.1724    0.4220 H         1 <0>         0.0716
     31 H2          0.5890    1.0497    1.2928 H         1 <0>         0.0939
     32 H3          0.7716   -0.7072    1.5123 H         1 <0>         0.0575
     33 H4          0.2970   -2.2393   -0.5496 H         1 <0>         0.0615
     34 H5         -0.2714   -1.4673   -2.0494 H         1 <0>         0.0555
     35 H6          1.3938   -1.1935   -1.4834 H         1 <0>         0.0651
     36 H7         -2.2562   -0.1124   -0.5710 H         1 <0>         0.0964
     37 H8         -1.6233   -1.4567    0.4091 H         1 <0>         0.1009
     38 H9         -3.8752    0.2295    1.2996 H         1 <0>         0.1090
     39 H10        -3.1006   -0.9564    2.3776 H         1 <0>         0.1216
     40 H11        -2.6764   -0.2546    4.8618 H         1 <0>         0.2106
     41 H12        -4.3069    2.7156    1.1068 H         1 <0>         0.1265
     42 H13        -5.2015    4.9420    1.6393 H         1 <0>         0.1285
     43 H14        -5.3051    5.7158    3.9702 H         1 <0>         0.1287
     44 H15        -4.5282    4.2840    5.7893 H         1 <0>         0.1280
     45 H16        -0.6765   -0.8044    2.6586 H         1 <0>         0.3900
     46 H17        -2.2237    0.9023   -1.6944 H         1 <0>         0.1429
     47 H18        -0.2096    4.1829   -3.5387 H         1 <0>         0.1366
     48 H19         1.8966    3.4957   -2.4665 H         1 <0>         0.1374
     49 H20         3.5427    2.2350   -2.2066 H         1 <0>         0.0549
     50 H21         3.1532    3.2581   -0.8030 H         1 <0>         0.0555
     51 H22         4.1916    1.8267   -0.6002 H         1 <0>         0.1010
@<TRIPOS>BOND
     1    1    2 1
     2    1   30 1
     3    1   31 1
     4    1   32 1
     5    2    3 1
     6    2    4 1
     7    2   21 1
     8    3   33 1
     9    3   34 1
    10    3   35 1
    11    4    5 1
    12    4   36 1
    13    4   37 1
    14    5    6 1
    15    5   16 1
    16    5   20 1
    17    6    7 1
    18    6   38 1
    19    6   39 1
    20    7   11 1
    21    7    8 1
    22    8    9 2
    23    8   40 1
    24    9   10 1
    25   10   15 ar
    26   10   11 ar
    27   11   12 ar
    28   12   13 ar
    29   12   41 1
    30   13   14 ar
    31   13   42 1
    32   14   15 ar
    33   14   43 1
    34   15   44 1
    35   16   17 1
    36   16   18 1
    37   16   19 1
    38   20   45 1
    39   21   26 ar
    40   21   22 ar
    41   22   23 ar
    42   22   46 1
    43   23   24 ar
    44   23   29 1
    45   24   25 ar
    46   24   47 1
    47   25   26 ar
    48   25   48 1
    49   26   27 1
    50   27   28 1
    51   28   49 1
    52   28   50 1
    53   28   51 1
@<TRIPOS>MOLECULE
CHEMBL373498__1
   52    54     0     0     0
SMALL
USER_CHARGES

@<TRIPOS>ATOM
      1 C1          0.8487    0.1134    0.7990 C.3       1 <0>        -0.1610
      2 C2         -0.1117   -0.1321   -0.3664 C.3       1 <0>        -0.0105
      3 C3          0.3609   -1.3453   -1.1700 C.3       1 <0>        -0.1387
      4 C4         -1.5169   -0.3968    0.1778 C.3       1 <0>        -0.1550
      5 C5         -1.7352    0.4269    1.4485 C.3       1 <0>         0.0806
      6 C6         -3.0991    0.0835    2.0509 C.3       1 <0>         0.0670
      7 N1         -3.3599    0.9562    3.1984 N.pl3     1 <0>        -0.4383
      8 C7         -3.1071    0.6688    4.5038 C.cat     1 <0>         0.3773
      9 N2         -3.4604    1.6681    5.2583 N.pl3     1 <0>        -0.4825
     10 C8         -3.9644    2.6662    4.4878 C.ar      1 <0>         0.0375
     11 C9         -3.9021    2.2251    3.1548 C.ar      1 <0>         0.1029
     12 C10        -4.3506    3.0501    2.1328 C.ar      1 <0>        -0.1079
     13 C11        -4.8521    4.2989    2.4335 C.ar      1 <0>        -0.0602
     14 C12        -4.9103    4.7351    3.7492 C.ar      1 <0>        -0.0819
     15 C13        -4.4795    3.9339    4.7688 C.ar      1 <0>        -0.0738
     16 C14        -1.6903    1.9170    1.1044 C.3       1 <0>         0.4596
     17 F1         -2.6654    2.2032    0.1428 F         1 <0>        -0.1637
     18 F2         -1.9375    2.6696    2.2575 F         1 <0>        -0.1740
     19 F3         -0.4270    2.2408    0.5981 F         1 <0>        -0.1331
     20 O1         -0.7073    0.1253    2.3942 O.3       1 <0>        -0.5187
     21 C15        -0.1392    1.0819   -1.2590 C.ar      1 <0>        -0.0698
     22 C16        -1.3203    1.4697   -1.8621 C.ar      1 <0>        -0.1455
     23 C17        -1.3460    2.5851   -2.6816 C.ar      1 <0>         0.0733
     24 C18        -0.1883    3.3133   -2.8985 C.ar      1 <0>        -0.1188
     25 C19         0.9938    2.9278   -2.2968 C.ar      1 <0>        -0.1710
     26 C20         1.0197    1.8136   -1.4708 C.ar      1 <0>         0.1269
     27 O2          2.1812    1.4364   -0.8735 O.3       1 <0>        -0.2969
     28 C21         3.3356    2.2365   -1.1364 C.3       1 <0>         0.0140
     29 F4         -2.5015    2.9632   -3.2708 F         1 <0>        -0.1378
     30 H1          1.8698    0.1724    0.4220 H         1 <0>         0.0781
     31 H2          0.5890    1.0497    1.2928 H         1 <0>         0.0897
     32 H3          0.7716   -0.7072    1.5123 H         1 <0>         0.0572
     33 H4          0.2970   -2.2393   -0.5496 H         1 <0>         0.0630
     34 H5         -0.2714   -1.4673   -2.0494 H         1 <0>         0.0587
     35 H6          1.3938   -1.1935   -1.4834 H         1 <0>         0.0691
     36 H7         -2.2562   -0.1124   -0.5710 H         1 <0>         0.1032
     37 H8         -1.6233   -1.4567    0.4091 H         1 <0>         0.1083
     38 H9         -3.8752    0.2295    1.2996 H         1 <0>         0.1395
     39 H10        -3.1006   -0.9564    2.3776 H         1 <0>         0.1484
     40 H11        -2.6764   -0.2546    4.8618 H         1 <0>         0.2649
     41 H12        -4.3069    2.7156    1.1068 H         1 <0>         0.1543
     42 H13        -5.2015    4.9420    1.6393 H         1 <0>         0.1559
     43 H14        -5.3051    5.7158    3.9702 H         1 <0>         0.1563
     44 H15        -4.5282    4.2840    5.7893 H         1 <0>         0.1524
     45 H16        -0.6765   -0.8044    2.6586 H         1 <0>         0.3972
     46 H17        -2.2237    0.9023   -1.6944 H         1 <0>         0.1416
     47 H18        -0.2096    4.1829   -3.5387 H         1 <0>         0.1397
     48 H19         1.8966    3.4957   -2.4665 H         1 <0>         0.1403
     49 H20         3.5427    2.2350   -2.2066 H         1 <0>         0.0583
     50 H21         3.1532    3.2581   -0.8030 H         1 <0>         0.0566
     51 H22         4.1916    1.8267   -0.6002 H         1 <0>         0.1037
     52 H23        -3.3767    1.6959    6.2243 H         1 <0>         0.4637
@<TRIPOS>BOND
     1    1    2 1
     2    1   30 1
     3    1   31 1
     4    1   32 1
     5    2    3 1
     6    2    4 1
     7    2   21 1
     8    3   33 1
     9    3   34 1
    10    3   35 1
    11    4    5 1
    12    4   36 1
    13    4   37 1
    14    5    6 1
    15    5   16 1
    16    5   20 1
    17    6    7 1
    18    6   38 1
    19    6   39 1
    20    7   11 1
    21    7    8 1
    22    8    9 2
    23    8   40 1
    24    9   10 1
    25    9   52 1
    26   10   15 ar
    27   10   11 ar
    28   11   12 ar
    29   12   13 ar
    30   12   41 1
    31   13   14 ar
    32   13   42 1
    33   14   15 ar
    34   14   43 1
    35   15   44 1
    36   16   17 1
    37   16   18 1
    38   16   19 1
    39   20   45 1
    40   21   26 ar
    41   21   22 ar
    42   22   23 ar
    43   22   46 1
    44   23   24 ar
    45   23   29 1
    46   24   25 ar
    47   24   47 1
    48   25   26 ar
    49   25   48 1
    50   26   27 1
    51   27   28 1
    52   28   49 1
    53   28   50 1
    54   28   51 1
@<TRIPOS>MOLECULE
CHEMBL373498__2
   51    53     0     0     0
SMALL
USER_CHARGES

@<TRIPOS>ATOM
      1 C1          0.1852    0.4678   -1.5638 C.3       1 <0>        -0.1372
      2 C2         -0.1055    0.5965   -0.0671 C.3       1 <0>        -0.0108
      3 C3         -0.1666    2.0767    0.3151 C.3       1 <0>        -0.1573
      4 C4         -1.4463   -0.0682    0.2510 C.3       1 <0>        -0.1560
      5 C5         -2.0818    0.6191    1.4612 C.3       1 <0>         0.0808
      6 C6         -3.4709    0.0288    1.7118 C.3       1 <0>         0.0818
      7 N1         -4.0794    0.6869    2.8707 N.pl3     1 <0>        -0.4943
      8 C7         -4.0487    0.2451    4.1570 C.2       1 <0>         0.2704
      9 N2         -4.6883    1.0736    4.9298 N.2       1 <0>        -0.4886
     10 C8         -5.1736    2.1047    4.1914 C.ar      1 <0>         0.0456
     11 C9         -4.7852    1.8733    2.8607 C.ar      1 <0>         0.0630
     12 C10        -5.1416    2.7778    1.8701 C.ar      1 <0>        -0.1072
     13 C11        -5.8727    3.8994    2.2004 C.ar      1 <0>        -0.0998
     14 C12        -6.2530    4.1290    3.5147 C.ar      1 <0>        -0.1294
     15 C13        -5.9170    3.2460    4.5019 C.ar      1 <0>        -0.0623
     16 C14        -1.2031    0.3965    2.6938 C.3       1 <0>         0.4618
     17 F1          0.0817    0.8916    2.4462 F         1 <0>        -0.1462
     18 F2         -1.7580    1.0666    3.7893 F         1 <0>        -0.1648
     19 F3         -1.1296   -0.9724    2.9730 F         1 <0>        -0.1718
     20 O1         -2.1986    2.0203    1.2063 O.3       1 <0>        -0.5127
     21 C15         0.9891   -0.0801    0.7172 C.ar      1 <0>        -0.0506
     22 C16         0.7167   -1.2294    1.4340 C.ar      1 <0>        -0.1593
     23 C17         1.7221   -1.8514    2.1542 C.ar      1 <0>         0.0750
     24 C18         3.0019   -1.3226    2.1576 C.ar      1 <0>        -0.1257
     25 C19         3.2770   -0.1738    1.4418 C.ar      1 <0>        -0.1705
     26 C20         2.2718    0.4474    0.7151 C.ar      1 <0>         0.1181
     27 O2          2.5425    1.5750    0.0056 O.3       1 <0>        -0.3020
     28 C21         3.8853    2.0620    0.0489 C.3       1 <0>         0.0208
     29 F4          1.4543   -2.9752    2.8547 F         1 <0>        -0.1391
     30 H1          1.0946    1.0177   -1.8059 H         1 <0>         0.0709
     31 H2          0.3174   -0.5836   -1.8191 H         1 <0>         0.0543
     32 H3         -0.6495    0.8776   -2.1325 H         1 <0>         0.0600
     33 H4         -0.9903    2.5551   -0.2149 H         1 <0>         0.0583
     34 H5         -0.3240    2.1682    1.3898 H         1 <0>         0.0936
     35 H6          0.7710    2.5613    0.0427 H         1 <0>         0.0626
     36 H7         -2.1102    0.0231   -0.6087 H         1 <0>         0.1013
     37 H8         -1.2851   -1.1226    0.4752 H         1 <0>         0.0981
     38 H9         -4.0969    0.1874    0.8337 H         1 <0>         0.1156
     39 H10        -3.3818   -1.0400    1.9063 H         1 <0>         0.1165
     40 H11        -3.5642   -0.6615    4.4883 H         1 <0>         0.2072
     41 H12        -4.8475    2.6042    0.8456 H         1 <0>         0.1159
     42 H13        -6.1508    4.6041    1.4307 H         1 <0>         0.1291
     43 H14        -6.8251    5.0118    3.7591 H         1 <0>         0.1287
     44 H15        -6.2171    3.4352    5.5219 H         1 <0>         0.1281
     45 H16        -2.7434    2.2361    0.4371 H         1 <0>         0.3871
     46 H17        -0.2812   -1.6425    1.4328 H         1 <0>         0.1538
     47 H18         3.7852   -1.8085    2.7205 H         1 <0>         0.1367
     48 H19         4.2752    0.2387    1.4450 H         1 <0>         0.1375
     49 H20         4.1551    2.2926    1.0796 H         1 <0>         0.0558
     50 H21         4.5606    1.3009   -0.3419 H         1 <0>         0.0555
     51 H22         3.9643    2.9641   -0.5578 H         1 <0>         0.1015
@<TRIPOS>BOND
     1    1    2 1
     2    1   30 1
     3    1   31 1
     4    1   32 1
     5    2    3 1
     6    2    4 1
     7    2   21 1
     8    3   33 1
     9    3   34 1
    10    3   35 1
    11    4    5 1
    12    4   36 1
    13    4   37 1
    14    5    6 1
    15    5   16 1
    16    5   20 1
    17    6    7 1
    18    6   38 1
    19    6   39 1
    20    7   11 1
    21    7    8 1
    22    8    9 2
    23    8   40 1
    24    9   10 1
    25   10   15 ar
    26   10   11 ar
    27   11   12 ar
    28   12   13 ar
    29   12   41 1
    30   13   14 ar
    31   13   42 1
    32   14   15 ar
    33   14   43 1
    34   15   44 1
    35   16   17 1
    36   16   18 1
    37   16   19 1
    38   20   45 1
    39   21   26 ar
    40   21   22 ar
    41   22   23 ar
    42   22   46 1
    43   23   24 ar
    44   23   29 1
    45   24   25 ar
    46   24   47 1
    47   25   26 ar
    48   25   48 1
    49   26   27 1
    50   27   28 1
    51   28   49 1
    52   28   50 1
    53   28   51 1
@<TRIPOS>MOLECULE
CHEMBL373498__3
   52    54     0     0     0
SMALL
USER_CHARGES

@<TRIPOS>ATOM
      1 C1          0.1852    0.4678   -1.5638 C.3       1 <0>        -0.1403
      2 C2         -0.1055    0.5965   -0.0671 C.3       1 <0>        -0.0086
      3 C3         -0.1666    2.0767    0.3151 C.3       1 <0>        -0.1590
      4 C4         -1.4463   -0.0682    0.2510 C.3       1 <0>        -0.1571
      5 C5         -2.0818    0.6191    1.4612 C.3       1 <0>         0.0803
      6 C6         -3.4709    0.0288    1.7118 C.3       1 <0>         0.0659
      7 N1         -4.0794    0.6869    2.8707 N.pl3     1 <0>        -0.4355
      8 C7         -4.0487    0.2451    4.1570 C.cat     1 <0>         0.3777
      9 N2         -4.6883    1.0736    4.9298 N.pl3     1 <0>        -0.4826
     10 C8         -5.1736    2.1047    4.1914 C.ar      1 <0>         0.0427
     11 C9         -4.7852    1.8733    2.8607 C.ar      1 <0>         0.0925
     12 C10        -5.1416    2.7778    1.8701 C.ar      1 <0>        -0.0866
     13 C11        -5.8727    3.8994    2.2004 C.ar      1 <0>        -0.0619
     14 C12        -6.2530    4.1290    3.5147 C.ar      1 <0>        -0.0807
     15 C13        -5.9170    3.2460    4.5019 C.ar      1 <0>        -0.0728
     16 C14        -1.2031    0.3964    2.6938 C.3       1 <0>         0.4606
     17 F1          0.0817    0.8916    2.4462 F         1 <0>        -0.1297
     18 F2         -1.7580    1.0666    3.7893 F         1 <0>        -0.1850
     19 F3         -1.1296   -0.9724    2.9730 F         1 <0>        -0.1650
     20 O1         -2.1986    2.0203    1.2063 O.3       1 <0>        -0.5126
     21 C15         0.9891   -0.0801    0.7172 C.ar      1 <0>        -0.0610
     22 C16         0.7167   -1.2294    1.4340 C.ar      1 <0>        -0.1644
     23 C17         1.7221   -1.8514    2.1542 C.ar      1 <0>         0.0747
     24 C18         3.0019   -1.3226    2.1576 C.ar      1 <0>        -0.1206
     25 C19         3.2770   -0.1738    1.4418 C.ar      1 <0>        -0.1672
     26 C20         2.2718    0.4474    0.7151 C.ar      1 <0>         0.1223
     27 O2          2.5425    1.5750    0.0056 O.3       1 <0>        -0.3031
     28 C21         3.8853    2.0620    0.0490 C.3       1 <0>         0.0193
     29 F4          1.4543   -2.9752    2.8547 F         1 <0>        -0.1382
     30 H1          1.0946    1.0177   -1.8059 H         1 <0>         0.0748
     31 H2          0.3174   -0.5836   -1.8191 H         1 <0>         0.0576
     32 H3         -0.6495    0.8776   -2.1325 H         1 <0>         0.0617
     33 H4         -0.9902    2.5551   -0.2148 H         1 <0>         0.0589
     34 H5         -0.3240    2.1682    1.3898 H         1 <0>         0.0889
     35 H6          0.7710    2.5613    0.0427 H         1 <0>         0.0692
     36 H7         -2.1102    0.0231   -0.6087 H         1 <0>         0.1090
     37 H8         -1.2851   -1.1226    0.4752 H         1 <0>         0.1049
     38 H9         -4.0969    0.1874    0.8337 H         1 <0>         0.1465
     39 H10        -3.3818   -1.0400    1.9063 H         1 <0>         0.1427
     40 H11        -3.5642   -0.6615    4.4883 H         1 <0>         0.2608
     41 H12        -4.8475    2.6042    0.8456 H         1 <0>         0.1462
     42 H13        -6.1508    4.6041    1.4307 H         1 <0>         0.1566
     43 H14        -6.8251    5.0118    3.7591 H         1 <0>         0.1563
     44 H15        -6.2171    3.4352    5.5219 H         1 <0>         0.1524
     45 H16        -2.7434    2.2361    0.4371 H         1 <0>         0.3941
     46 H17        -0.2812   -1.6425    1.4328 H         1 <0>         0.1502
     47 H18         3.7852   -1.8085    2.7205 H         1 <0>         0.1398
     48 H19         4.2752    0.2387    1.4450 H         1 <0>         0.1408
     49 H20         4.1551    2.2926    1.0796 H         1 <0>         0.0573
     50 H21         4.5606    1.3009   -0.3419 H         1 <0>         0.0587
     51 H22         3.9643    2.9641   -0.5578 H         1 <0>         0.1046
     52 H23        -4.8015    0.9703    5.8876 H         1 <0>         0.4642
@<TRIPOS>BOND
     1    1    2 1
     2    1   30 1
     3    1   31 1
     4    1   32 1
     5    2    3 1
     6    2    4 1
     7    2   21 1
     8    3   33 1
     9    3   34 1
    10    3   35 1
    11    4    5 1
    12    4   36 1
    13    4   37 1
    14    5    6 1
    15    5   16 1
    16    5   20 1
    17    6    7 1
    18    6   38 1
    19    6   39 1
    20    7   11 1
    21    7    8 1
    22    8    9 2
    23    8   40 1
    24    9   10 1
    25    9   52 1
    26   10   15 ar
    27   10   11 ar
    28   11   12 ar
    29   12   13 ar
    30   12   41 1
    31   13   14 ar
    32   13   42 1
    33   14   15 ar
    34   14   43 1
    35   15   44 1
    36   16   17 1
    37   16   18 1
    38   16   19 1
    39   20   45 1
    40   21   26 ar
    41   21   22 ar
    42   22   23 ar
    43   22   46 1
    44   23   24 ar
    45   23   29 1
    46   24   25 ar
    47   24   47 1
    48   25   26 ar
    49   25   48 1
    50   26   27 1
    51   27   28 1
    52   28   49 1
    53   28   50 1
    54   28   51 1
@<TRIPOS>MOLECULE
CHEMBL197161
   59    62     0     0     0
SMALL
USER_CHARGES

@<TRIPOS>ATOM
      1 C1          0.0760    1.3282    0.8380 C.3       1 <0>        -0.1416
      2 C2          0.0260   -0.0813    0.2449 C.3       1 <0>        -0.0177
      3 C3          0.8972   -1.0187    1.0834 C.3       1 <0>        -0.1623
      4 C4         -1.4183   -0.5860    0.2506 C.3       1 <0>        -0.1322
      5 C5         -2.1366   -0.0627    1.4960 C.3       1 <0>         0.1401
      6 C6         -1.3421   -0.4519    2.7443 C.3       1 <0>        -0.0825
      7 C7         -2.1411   -0.1095    3.9753 C.ar      1 <0>        -0.0965
      8 C8         -2.0124    1.1374    4.5581 C.ar      1 <0>        -0.0979
      9 C9         -2.7453    1.4515    5.6873 C.ar      1 <0>        -0.1211
     10 C10        -3.6072    0.5188    6.2335 C.ar      1 <0>        -0.1170
     11 C11        -3.7365   -0.7277    5.6501 C.ar      1 <0>        -0.1161
     12 C12        -3.0068   -1.0403    4.5185 C.ar      1 <0>        -0.1112
     13 C13        -3.5161   -0.6647    1.5706 C.2       1 <0>         0.4952
     14 O1         -3.7442   -1.7266    1.0311 O.2       1 <0>        -0.5044
     15 N1         -4.4963   -0.0229    2.2368 N.am      1 <0>        -0.6581
     16 C14        -5.7409   -0.6295    2.4001 C.ar      1 <0>         0.1986
     17 C15        -5.8265   -2.0105    2.5499 C.ar      1 <0>        -0.1306
     18 C16        -7.0525   -2.6157    2.7116 C.ar      1 <0>        -0.0090
     19 C17        -8.2146   -1.8399    2.7252 C.ar      1 <0>        -0.2156
     20 C18        -8.1209   -0.4514    2.5739 C.ar      1 <0>        -0.0790
     21 C19        -6.8963    0.1479    2.4188 C.ar      1 <0>        -0.1293
     22 C20        -9.5331    0.0734    2.6345 C.3       1 <0>         0.0915
     23 O2        -10.3851   -1.0600    2.8211 O.3       1 <0>        -0.3150
     24 C21        -9.6395   -2.1765    2.8759 C.2       1 <0>         0.5231
     25 O3        -10.0775   -3.2996    3.0281 O.2       1 <0>        -0.4495
     26 O4         -2.2413    1.3606    1.4227 O.3       1 <0>        -0.5369
     27 C22         0.5412   -0.0491   -1.1710 C.ar      1 <0>        -0.0674
     28 C23        -0.2783   -0.4388   -2.2138 C.ar      1 <0>        -0.1275
     29 C24         0.1944   -0.4092   -3.5125 C.ar      1 <0>        -0.1168
     30 C25         1.4863    0.0105   -3.7684 C.ar      1 <0>        -0.1254
     31 C26         2.3056    0.4010   -2.7257 C.ar      1 <0>        -0.1172
     32 C27         1.8315    0.3756   -1.4274 C.ar      1 <0>        -0.1144
     33 H1          1.0744    1.7441    0.7026 H         1 <0>         0.0455
     34 H2         -0.6530    1.9613    0.3322 H         1 <0>         0.0682
     35 H3         -0.1578    1.2833    1.9017 H         1 <0>         0.0768
     36 H4          0.4905   -1.0871    2.0924 H         1 <0>         0.0746
     37 H5          0.9079   -2.0090    0.6281 H         1 <0>         0.0582
     38 H6          1.9137   -0.6278    1.1271 H         1 <0>         0.0600
     39 H7         -1.9317   -0.2285   -0.6420 H         1 <0>         0.0820
     40 H8         -1.4223   -1.6760    0.2600 H         1 <0>         0.0916
     41 H9         -1.1413   -1.5231    2.7278 H         1 <0>         0.0956
     42 H10        -0.3990    0.0943    2.7597 H         1 <0>         0.1184
     43 H11        -1.3391    1.8660    4.1314 H         1 <0>         0.1256
     44 H12        -2.6443    2.4254    6.1430 H         1 <0>         0.1220
     45 H13        -4.1793    0.7640    7.1161 H         1 <0>         0.1203
     46 H14        -4.4096   -1.4565    6.0770 H         1 <0>         0.1194
     47 H15        -3.1106   -2.0129    4.0606 H         1 <0>         0.1144
     48 H16        -4.3358    0.8610    2.6027 H         1 <0>         0.4204
     49 H17        -4.9280   -2.6097    2.5390 H         1 <0>         0.1463
     50 H18        -7.1159   -3.6876    2.8273 H         1 <0>         0.1409
     51 H19        -6.8288    1.2200    2.3073 H         1 <0>         0.1387
     52 H20        -9.6395    0.7620    3.4727 H         1 <0>         0.1182
     53 H21        -9.7835    0.5788    1.7018 H         1 <0>         0.1178
     54 H22        -2.7338    1.6797    0.6541 H         1 <0>         0.3806
     55 H23        -1.2877   -0.7667   -2.0138 H         1 <0>         0.1260
     56 H24        -0.4457   -0.7144   -4.3271 H         1 <0>         0.1204
     57 H25         1.8558    0.0329   -4.7830 H         1 <0>         0.1201
     58 H26         3.3151    0.7286   -2.9257 H         1 <0>         0.1210
     59 H27         2.4703    0.6843   -0.6131 H         1 <0>         0.1207
@<TRIPOS>BOND
     1    1    2 1
     2    1   33 1
     3    1   34 1
     4    1   35 1
     5    2    3 1
     6    2    4 1
     7    2   27 1
     8    3   36 1
     9    3   37 1
    10    3   38 1
    11    4    5 1
    12    4   39 1
    13    4   40 1
    14    5    6 1
    15    5   13 1
    16    5   26 1
    17    6    7 1
    18    6   41 1
    19    6   42 1
    20    7   12 ar
    21    7    8 ar
    22    8    9 ar
    23    8   43 1
    24    9   10 ar
    25    9   44 1
    26   10   11 ar
    27   10   45 1
    28   11   12 ar
    29   11   46 1
    30   12   47 1
    31   13   14 2
    32   13   15 am
    33   15   16 1
    34   15   48 1
    35   16   21 ar
    36   16   17 ar
    37   17   18 ar
    38   17   49 1
    39   18   19 ar
    40   18   50 1
    41   19   24 1
    42   19   20 ar
    43   20   21 ar
    44   20   22 1
    45   21   51 1
    46   22   23 1
    47   22   52 1
    48   22   53 1
    49   23   24 1
    50   24   25 2
    51   26   54 1
    52   27   32 ar
    53   27   28 ar
    54   28   29 ar
    55   28   55 1
    56   29   30 ar
    57   29   56 1
    58   30   31 ar
    59   30   57 1
    60   31   32 ar
    61   31   58 1
    62   32   59 1
@<TRIPOS>MOLECULE
CHEMBL197161__1
   59    62     0     0     0
SMALL
USER_CHARGES

@<TRIPOS>ATOM
      1 C1         -0.1299   -0.0009    2.4749 C.3       1 <0>        -0.1417
      2 C2         -0.6310   -1.2128    1.6869 C.3       1 <0>        -0.0278
      3 C3         -1.9694   -1.6785    2.2639 C.3       1 <0>        -0.1623
      4 C4         -0.8159   -0.8253    0.2184 C.3       1 <0>        -0.1335
      5 C5         -1.9433    0.2021    0.1000 C.3       1 <0>         0.1393
      6 C6         -1.8826    0.8698   -1.2752 C.3       1 <0>        -0.0615
      7 C7         -0.5625    1.5798   -1.4312 C.ar      1 <0>        -0.0781
      8 C8         -0.3995    2.8552   -0.9237 C.ar      1 <0>        -0.0917
      9 C9          0.8115    3.5065   -1.0667 C.ar      1 <0>        -0.1213
     10 C10         1.8595    2.8821   -1.7168 C.ar      1 <0>        -0.1192
     11 C11         1.6968    1.6063   -2.2235 C.ar      1 <0>        -0.1207
     12 C12         0.4872    0.9534   -2.0767 C.ar      1 <0>        -0.1170
     13 C13        -3.2723   -0.4891    0.2646 C.2       1 <0>         0.5023
     14 O1         -3.6712   -1.2482   -0.5929 O.2       1 <0>        -0.4986
     15 N1         -4.0174   -0.2638    1.3648 N.am      1 <0>        -0.6742
     16 C14        -5.1894   -0.9893    1.5736 C.ar      1 <0>         0.1885
     17 C15        -5.9875   -1.3468    0.4909 C.ar      1 <0>        -0.1289
     18 C16        -7.1461   -2.0632    0.6903 C.ar      1 <0>        -0.0101
     19 C17        -7.5214   -2.4325    1.9846 C.ar      1 <0>        -0.2113
     20 C18        -6.7138   -2.0695    3.0689 C.ar      1 <0>        -0.0813
     21 C19        -5.5570   -1.3603    2.8647 C.ar      1 <0>        -0.1256
     22 C20        -7.3935   -2.6150    4.2992 C.3       1 <0>         0.0915
     23 O2         -8.5803   -3.2770    3.8538 O.3       1 <0>        -0.3143
     24 C21        -8.6712   -3.1817    2.5167 C.2       1 <0>         0.5227
     25 O3         -9.5707   -3.6464    1.8449 O.2       1 <0>        -0.4478
     26 O4         -1.7929    1.1937    1.1180 O.3       1 <0>        -0.5424
     27 C22         0.3758   -2.3296    1.7889 C.ar      1 <0>        -0.0676
     28 C23         0.9710   -2.8300    0.6460 C.ar      1 <0>        -0.1208
     29 C24         1.8945   -3.8544    0.7395 C.ar      1 <0>        -0.1157
     30 C25         2.2230   -4.3780    1.9760 C.ar      1 <0>        -0.1233
     31 C26         1.6284   -3.8770    3.1189 C.ar      1 <0>        -0.1170
     32 C27         0.7082   -2.8497    3.0258 C.ar      1 <0>        -0.1163
     33 H1          0.5922   -0.3274    3.2234 H         1 <0>         0.0586
     34 H2          0.3466    0.7039    1.7935 H         1 <0>         0.0767
     35 H3         -0.9715    0.4843    2.9694 H         1 <0>         0.0564
     36 H4         -2.5572   -0.8110    2.5640 H         1 <0>         0.0584
     37 H5         -2.5146   -2.2427    1.5072 H         1 <0>         0.0623
     38 H6         -1.7898   -2.3134    3.1314 H         1 <0>         0.0690
     39 H7          0.1099   -0.3945   -0.1630 H         1 <0>         0.0999
     40 H8         -1.0701   -1.7122   -0.3622 H         1 <0>         0.0856
     41 H9         -1.9813    0.1115   -2.0520 H         1 <0>         0.0992
     42 H10        -2.6955    1.5903   -1.3656 H         1 <0>         0.0850
     43 H11        -1.2183    3.3430   -0.4158 H         1 <0>         0.1236
     44 H12         0.9386    4.5032   -0.6708 H         1 <0>         0.1206
     45 H13         2.8054    3.3911   -1.8291 H         1 <0>         0.1199
     46 H14         2.5155    1.1186   -2.7317 H         1 <0>         0.1209
     47 H15         0.3612   -0.0448   -2.4693 H         1 <0>         0.1203
     48 H16        -3.7382    0.4032    2.0114 H         1 <0>         0.4134
     49 H17        -5.6972   -1.0608   -0.5092 H         1 <0>         0.1537
     50 H18        -7.7636   -2.3389   -0.1518 H         1 <0>         0.1424
     51 H19        -4.9348   -1.0868    3.7040 H         1 <0>         0.1400
     52 H20        -6.7377   -3.3244    4.8041 H         1 <0>         0.1182
     53 H21        -7.6522   -1.7997    4.9748 H         1 <0>         0.1188
     54 H22        -2.0272    0.8862    2.0043 H         1 <0>         0.3728
     55 H23         0.7144   -2.4209   -0.3200 H         1 <0>         0.1243
     56 H24         2.3591   -4.2458   -0.1534 H         1 <0>         0.1219
     57 H25         2.9440   -5.1788    2.0490 H         1 <0>         0.1212
     58 H26         1.8849   -4.2863    4.0849 H         1 <0>         0.1217
     59 H27         0.2464   -2.4557    3.9190 H         1 <0>         0.1207
@<TRIPOS>BOND
     1    1    2 1
     2    1   33 1
     3    1   34 1
     4    1   35 1
     5    2    3 1
     6    2    4 1
     7    2   27 1
     8    3   36 1
     9    3   37 1
    10    3   38 1
    11    4    5 1
    12    4   39 1
    13    4   40 1
    14    5    6 1
    15    5   13 1
    16    5   26 1
    17    6    7 1
    18    6   41 1
    19    6   42 1
    20    7   12 ar
    21    7    8 ar
    22    8    9 ar
    23    8   43 1
    24    9   10 ar
    25    9   44 1
    26   10   11 ar
    27   10   45 1
    28   11   12 ar
    29   11   46 1
    30   12   47 1
    31   13   14 2
    32   13   15 am
    33   15   16 1
    34   15   48 1
    35   16   21 ar
    36   16   17 ar
    37   17   18 ar
    38   17   49 1
    39   18   19 ar
    40   18   50 1
    41   19   24 1
    42   19   20 ar
    43   20   21 ar
    44   20   22 1
    45   21   51 1
    46   22   23 1
    47   22   52 1
    48   22   53 1
    49   23   24 1
    50   24   25 2
    51   26   54 1
    52   27   32 ar
    53   27   28 ar
    54   28   29 ar
    55   28   55 1
    56   29   30 ar
    57   29   56 1
    58   30   31 ar
    59   30   57 1
    60   31   32 ar
    61   31   58 1
    62   32   59 1
@<TRIPOS>MOLECULE
CHEMBL427554
   62    65     0     0     0
SMALL
USER_CHARGES

@<TRIPOS>ATOM
      1 C1          0.0811    1.3470    0.8037 C.3       1 <0>        -0.1414
      2 C2          0.0223   -0.0613    0.2087 C.3       1 <0>        -0.0170
      3 C3          0.8897   -1.0047    1.0445 C.3       1 <0>        -0.1619
      4 C4         -1.4248   -0.5581    0.2162 C.3       1 <0>        -0.1316
      5 C5         -2.1382   -0.0322    1.4633 C.3       1 <0>         0.1345
      6 C6         -1.3448   -0.4289    2.7100 C.3       1 <0>        -0.1150
      7 C7         -2.1524   -0.0783    3.9613 C.3       1 <0>        -0.0898
      8 C8         -1.3711   -0.4690    5.1893 C.ar      1 <0>        -0.0836
      9 C9         -1.5147   -1.7347    5.7262 C.ar      1 <0>        -0.1173
     10 C10        -0.7979   -2.0931    6.8526 C.ar      1 <0>        -0.1168
     11 C11         0.0628   -1.1860    7.4417 C.ar      1 <0>        -0.1223
     12 C12         0.2071    0.0794    6.9043 C.ar      1 <0>        -0.1173
     13 C13        -0.5064    0.4364    5.7754 C.ar      1 <0>        -0.1153
     14 C14        -3.5215   -0.6253    1.5384 C.2       1 <0>         0.4928
     15 O1         -3.7572   -1.6848    0.9973 O.2       1 <0>        -0.5001
     16 N1         -4.4967    0.0217    2.2069 N.am      1 <0>        -0.6663
     17 C15        -5.7441   -0.5783    2.3733 C.ar      1 <0>         0.1910
     18 C16        -5.8361   -1.9583    2.5292 C.ar      1 <0>        -0.1309
     19 C17        -7.0648   -2.5570    2.6940 C.ar      1 <0>        -0.0084
     20 C18        -8.2233   -1.7757    2.7047 C.ar      1 <0>        -0.2137
     21 C19        -8.1232   -0.3883    2.5473 C.ar      1 <0>        -0.0797
     22 C20        -6.8958    0.2045    2.3890 C.ar      1 <0>        -0.1274
     23 C21        -9.5328    0.1432    2.6062 C.3       1 <0>         0.0914
     24 O2        -10.3901   -0.9853    2.7980 O.3       1 <0>        -0.3145
     25 C22        -9.6497   -2.1050    2.8574 C.2       1 <0>         0.5230
     26 O3        -10.0928   -3.2254    3.0147 O.2       1 <0>        -0.4484
     27 O4         -2.2336    1.3919    1.3926 O.3       1 <0>        -0.5389
     28 C23         0.5354   -0.0300   -1.2079 C.ar      1 <0>        -0.0673
     29 C24        -0.2880   -0.4137   -2.2499 C.ar      1 <0>        -0.1277
     30 C25         0.1826   -0.3849   -3.5493 C.ar      1 <0>        -0.1168
     31 C26         1.4765    0.0280   -3.8068 C.ar      1 <0>        -0.1256
     32 C27         2.2996    0.4126   -2.7649 C.ar      1 <0>        -0.1172
     33 C28         1.8276    0.3879   -1.4659 C.ar      1 <0>        -0.1144
     34 H1          1.0808    1.7586    0.6651 H         1 <0>         0.0450
     35 H2         -0.6470    1.9842    0.3017 H         1 <0>         0.0674
     36 H3         -0.1488    1.3016    1.8682 H         1 <0>         0.0778
     37 H4          0.4844   -1.0721    2.0542 H         1 <0>         0.0762
     38 H5          0.8940   -1.9945    0.5880 H         1 <0>         0.0571
     39 H6          1.9085   -0.6196    1.0869 H         1 <0>         0.0590
     40 H7         -1.9376   -0.1967   -0.6752 H         1 <0>         0.0811
     41 H8         -1.4347   -1.6480    0.2243 H         1 <0>         0.0912
     42 H9         -1.1509   -1.5013    2.6913 H         1 <0>         0.0887
     43 H10        -0.3982    0.1113    2.7254 H         1 <0>         0.1129
     44 H11        -2.3463    0.9941    3.9800 H         1 <0>         0.0834
     45 H12        -3.0991   -0.6185    3.9459 H         1 <0>         0.0708
     46 H13        -2.1872   -2.4435    5.2659 H         1 <0>         0.1186
     47 H14        -0.9107   -3.0817    7.2725 H         1 <0>         0.1218
     48 H15         0.6223   -1.4657    8.3222 H         1 <0>         0.1214
     49 H16         0.8793    0.7883    7.3648 H         1 <0>         0.1222
     50 H17        -0.3909    1.4237    5.3533 H         1 <0>         0.1223
     51 H18        -4.3307    0.9048    2.5721 H         1 <0>         0.4211
     52 H19        -4.9404   -2.5617    2.5206 H         1 <0>         0.1471
     53 H20        -7.1332   -3.6281    2.8144 H         1 <0>         0.1420
     54 H21        -6.8234    1.2758    2.2728 H         1 <0>         0.1407
     55 H22        -9.6357    0.8360    3.4414 H         1 <0>         0.1189
     56 H23        -9.7813    0.6458    1.6714 H         1 <0>         0.1184
     57 H24        -2.7249    1.7155    0.6251 H         1 <0>         0.3812
     58 H25        -1.2989   -0.7363   -2.0487 H         1 <0>         0.1259
     59 H26        -0.4604   -0.6854   -4.3633 H         1 <0>         0.1204
     60 H27         1.8444    0.0498   -4.8220 H         1 <0>         0.1201
     61 H28         3.3106    0.7349   -2.9661 H         1 <0>         0.1209
     62 H29         2.4694    0.6919   -0.6523 H         1 <0>         0.1206
@<TRIPOS>BOND
     1    1    2 1
     2    1   34 1
     3    1   35 1
     4    1   36 1
     5    2    3 1
     6    2    4 1
     7    2   28 1
     8    3   37 1
     9    3   38 1
    10    3   39 1
    11    4    5 1
    12    4   40 1
    13    4   41 1
    14    5    6 1
    15    5   14 1
    16    5   27 1
    17    6    7 1
    18    6   42 1
    19    6   43 1
    20    7    8 1
    21    7   44 1
    22    7   45 1
    23    8   13 ar
    24    8    9 ar
    25    9   10 ar
    26    9   46 1
    27   10   11 ar
    28   10   47 1
    29   11   12 ar
    30   11   48 1
    31   12   13 ar
    32   12   49 1
    33   13   50 1
    34   14   15 2
    35   14   16 am
    36   16   17 1
    37   16   51 1
    38   17   22 ar
    39   17   18 ar
    40   18   19 ar
    41   18   52 1
    42   19   20 ar
    43   19   53 1
    44   20   25 1
    45   20   21 ar
    46   21   22 ar
    47   21   23 1
    48   22   54 1
    49   23   24 1
    50   23   55 1
    51   23   56 1
    52   24   25 1
    53   25   26 2
    54   27   57 1
    55   28   33 ar
    56   28   29 ar
    57   29   30 ar
    58   29   58 1
    59   30   31 ar
    60   30   59 1
    61   31   32 ar
    62   31   60 1
    63   32   33 ar
    64   32   61 1
    65   33   62 1
@<TRIPOS>MOLECULE
CHEMBL427554__1
   62    65     0     0     0
SMALL
USER_CHARGES

@<TRIPOS>ATOM
      1 C1         -0.0954   -0.0661    2.4154 C.3       1 <0>        -0.1431
      2 C2         -0.6174   -1.2635    1.6188 C.3       1 <0>        -0.0291
      3 C3         -1.9558   -1.7202    2.2027 C.3       1 <0>        -0.1625
      4 C4         -0.8109   -0.8578    0.1563 C.3       1 <0>        -0.1339
      5 C5         -1.9274    0.1839    0.0595 C.3       1 <0>         0.1334
      6 C6         -1.8713    0.8659   -1.3090 C.3       1 <0>        -0.0926
      7 C7         -0.5222    1.5686   -1.4737 C.3       1 <0>        -0.0759
      8 C8         -0.5129    2.3411   -2.7676 C.ar      1 <0>        -0.0842
      9 C9         -0.0833    1.7332   -3.9324 C.ar      1 <0>        -0.1174
     10 C10        -0.0748    2.4419   -5.1193 C.ar      1 <0>        -0.1182
     11 C11        -0.4962    3.7582   -5.1414 C.ar      1 <0>        -0.1237
     12 C12        -0.9266    4.3658   -3.9768 C.ar      1 <0>        -0.1186
     13 C13        -0.9392    3.6559   -2.7907 C.ar      1 <0>        -0.1157
     14 C14        -3.2627   -0.4937    0.2287 C.2       1 <0>         0.5021
     15 O1         -3.6775   -1.2400   -0.6326 O.2       1 <0>        -0.4983
     16 N1         -3.9961   -0.2703    1.3372 N.am      1 <0>        -0.6747
     17 C15        -5.1746   -0.9844    1.5489 C.ar      1 <0>         0.1887
     18 C16        -5.9849   -1.3239    0.4694 C.ar      1 <0>        -0.1291
     19 C17        -7.1499   -2.0289    0.6717 C.ar      1 <0>        -0.0101
     20 C18        -7.5196   -2.4046    1.9658 C.ar      1 <0>        -0.2114
     21 C19        -6.6998   -2.0598    3.0468 C.ar      1 <0>        -0.0813
     22 C20        -5.5366   -1.3619    2.8397 C.ar      1 <0>        -0.1259
     23 C21        -7.3763   -2.6078    4.2778 C.3       1 <0>         0.0917
     24 O2         -8.5739   -3.2527    3.8360 O.3       1 <0>        -0.3144
     25 C22        -8.6738   -3.1453    2.5004 C.2       1 <0>         0.5228
     26 O3         -9.5835   -3.5943    1.8317 O.2       1 <0>        -0.4477
     27 O4         -1.7562    1.1625    1.0867 O.3       1 <0>        -0.5460
     28 C23         0.3774   -2.3927    1.6994 C.ar      1 <0>        -0.0686
     29 C24         0.9566   -2.8872    0.5457 C.ar      1 <0>        -0.1219
     30 C25         1.8690   -3.9230    0.6197 C.ar      1 <0>        -0.1156
     31 C26         2.2026   -4.4639    1.8473 C.ar      1 <0>        -0.1230
     32 C27         1.6241   -3.9688    3.0010 C.ar      1 <0>        -0.1167
     33 C28         0.7148   -2.9301    2.9274 C.ar      1 <0>        -0.1161
     34 H1          0.6302   -0.4089    3.1531 H         1 <0>         0.0600
     35 H2          0.3824    0.6410    1.7373 H         1 <0>         0.0764
     36 H3         -0.9267    0.4227    2.9234 H         1 <0>         0.0572
     37 H4         -2.5308   -0.8494    2.5177 H         1 <0>         0.0586
     38 H5         -2.5142   -2.2697    1.4450 H         1 <0>         0.0626
     39 H6         -1.7757   -2.3668    3.0616 H         1 <0>         0.0693
     40 H7          0.1163   -0.4335   -0.2288 H         1 <0>         0.0971
     41 H8         -1.0807   -1.7351   -0.4315 H         1 <0>         0.0880
     42 H9         -1.9894    0.1178   -2.0929 H         1 <0>         0.0911
     43 H10        -2.6743    1.5993   -1.3826 H         1 <0>         0.0770
     44 H11        -0.3652    2.2536   -0.6405 H         1 <0>         0.0867
     45 H12         0.2751    0.8255   -1.4884 H         1 <0>         0.0755
     46 H13         0.2459    0.7048   -3.9151 H         1 <0>         0.1209
     47 H14         0.2615    1.9671   -6.0292 H         1 <0>         0.1216
     48 H15        -0.4888    4.3120   -6.0686 H         1 <0>         0.1209
     49 H16        -1.2556    5.3944   -3.9940 H         1 <0>         0.1214
     50 H17        -1.2790    4.1295   -1.8815 H         1 <0>         0.1216
     51 H18        -3.7039    0.3872    1.9877 H         1 <0>         0.4132
     52 H19        -5.6988   -1.0329   -0.5305 H         1 <0>         0.1536
     53 H20        -7.7768   -2.2906   -0.1678 H         1 <0>         0.1423
     54 H21        -4.9051   -1.1024    3.6765 H         1 <0>         0.1400
     55 H22        -6.7249   -3.3286    4.7718 H         1 <0>         0.1181
     56 H23        -7.6208   -1.7952    4.9620 H         1 <0>         0.1187
     57 H24        -1.9819    0.8466    1.9724 H         1 <0>         0.3739
     58 H25         0.6960   -2.4646   -0.4134 H         1 <0>         0.1249
     59 H26         2.3210   -4.3098   -0.2817 H         1 <0>         0.1222
     60 H27         2.9150   -5.2736    1.9050 H         1 <0>         0.1213
     61 H28         1.8844   -4.3916    3.9600 H         1 <0>         0.1218
     62 H29         0.2656   -2.5408    3.8291 H         1 <0>         0.1210
@<TRIPOS>BOND
     1    1    2 1
     2    1   34 1
     3    1   35 1
     4    1   36 1
     5    2    3 1
     6    2    4 1
     7    2   28 1
     8    3   37 1
     9    3   38 1
    10    3   39 1
    11    4    5 1
    12    4   40 1
    13    4   41 1
    14    5    6 1
    15    5   14 1
    16    5   27 1
    17    6    7 1
    18    6   42 1
    19    6   43 1
    20    7    8 1
    21    7   44 1
    22    7   45 1
    23    8   13 ar
    24    8    9 ar
    25    9   10 ar
    26    9   46 1
    27   10   11 ar
    28   10   47 1
    29   11   12 ar
    30   11   48 1
    31   12   13 ar
    32   12   49 1
    33   13   50 1
    34   14   15 2
    35   14   16 am
    36   16   17 1
    37   16   51 1
    38   17   22 ar
    39   17   18 ar
    40   18   19 ar
    41   18   52 1
    42   19   20 ar
    43   19   53 1
    44   20   25 1
    45   20   21 ar
    46   21   22 ar
    47   21   23 1
    48   22   54 1
    49   23   24 1
    50   23   55 1
    51   23   56 1
    52   24   25 1
    53   25   26 2
    54   27   57 1
    55   28   33 ar
    56   28   29 ar
    57   29   30 ar
    58   29   58 1
    59   30   31 ar
    60   30   59 1
    61   31   32 ar
    62   31   60 1
    63   32   33 ar
    64   32   61 1
    65   33   62 1
@<TRIPOS>MOLECULE
CHEMBL222515
   70    75     0     0     0
SMALL
USER_CHARGES

@<TRIPOS>ATOM
      1 C1         -0.4528    1.7983   -0.0735 C.3       1 <0>        -0.0466
      2 C2         -0.6794    0.3479   -0.1821 C.1       1 <0>        -0.1622
      3 C3         -0.8602   -0.8089   -0.2687 C.1       1 <0>        -0.2133
      4 C4         -1.0868   -2.2593   -0.3773 C.3       1 <0>         0.2582
      5 C5         -1.3056   -2.6579   -1.8569 C.3       1 <0>        -0.1449
      6 C6         -2.7573   -3.1976   -1.9555 C.3       1 <0>        -0.1136
      7 C7         -3.4565   -2.5329   -0.7622 C.3       1 <0>        -0.0797
      8 H1         -3.6734   -1.4871   -0.9799 H         1 <0>         0.0807
      9 C8         -2.3753   -2.6483    0.3446 C.3       1 <0>        -0.0372
     10 C9         -2.7951   -1.7292    1.4785 C.3       1 <0>        -0.0957
     11 C10        -4.0635   -2.3292    2.1040 C.3       1 <0>        -0.0222
     12 H2         -4.4764   -1.6228    2.8242 H         1 <0>         0.1038
     13 C11        -5.1041   -2.6232    1.0417 C.2       1 <0>        -0.0488
     14 C12        -6.3673   -2.3012    1.3135 C.2       1 <0>        -0.1286
     15 C13        -6.7318   -1.6562    2.6312 C.3       1 <0>        -0.0817
     16 C14        -7.7351   -0.5304    2.3624 C.3       1 <0>        -0.1659
     17 C15        -8.8664   -1.0408    1.5115 C.2       1 <0>         0.3868
     18 O1         -9.9910   -0.6239    1.7035 O.2       1 <0>        -0.4698
     19 C16        -8.6472   -1.9904    0.4982 C.2       1 <0>        -0.2459
     20 C17        -7.4414   -2.5822    0.3613 C.2       1 <0>         0.0253
     21 C18        -7.1538   -3.5520   -0.7585 C.3       1 <0>        -0.0955
     22 C19        -5.7781   -3.2084   -1.3279 C.3       1 <0>        -0.1115
     23 C20        -4.7107   -3.2482   -0.2779 C.3       1 <0>        -0.0447
     24 H3         -4.4733   -4.2975   -0.1030 H         1 <0>         0.0926
     25 C21        -3.7073   -3.6095    2.8147 C.ar      1 <0>        -0.0851
     26 C22        -4.5345   -4.7122    2.7063 C.ar      1 <0>        -0.0862
     27 C23        -4.2101   -5.8871    3.3563 C.ar      1 <0>        -0.1884
     28 C24        -3.0529   -5.9601    4.1186 C.ar      1 <0>         0.1187
     29 C25        -2.2246   -4.8521    4.2258 C.ar      1 <0>        -0.1389
     30 C26        -2.5509   -3.6812    3.5694 C.ar      1 <0>        -0.0774
     31 O2         -2.7318   -7.1145    4.7594 O.3       1 <0>        -0.2602
     32 C27        -3.5496   -8.1865    4.5909 C.ar      1 <0>         0.0851
     33 C28        -3.4867   -8.9318    3.4221 C.ar      1 <0>        -0.1325
     34 C29        -4.3192  -10.0210    3.2533 C.ar      1 <0>        -0.1055
     35 C30        -5.2151  -10.3687    4.2475 C.ar      1 <0>        -0.1186
     36 C31        -5.2802   -9.6274    5.4130 C.ar      1 <0>        -0.1048
     37 C32        -4.4452   -8.5412    5.5896 C.ar      1 <0>        -0.1231
     38 C33        -2.2822   -4.0945    0.8352 C.3       1 <0>        -0.1523
     39 O3          0.0223   -2.9747    0.1706 O.3       1 <0>        -0.5388
     40 H4          0.4688    2.0619   -0.5924 H         1 <0>         0.0818
     41 H5         -1.2893    2.3316   -0.5252 H         1 <0>         0.0823
     42 H6         -0.3701    2.0754    0.9774 H         1 <0>         0.0823
     43 H7         -1.1860   -1.7865   -2.5007 H         1 <0>         0.0723
     44 H8         -0.5972   -3.4352   -2.1435 H         1 <0>         0.0810
     45 H9         -3.2199   -2.8899   -2.8933 H         1 <0>         0.0715
     46 H10        -2.7725   -4.2829   -1.8552 H         1 <0>         0.0752
     47 H11        -2.0028   -1.6753    2.2252 H         1 <0>         0.0763
     48 H12        -3.0083   -0.7335    1.0897 H         1 <0>         0.0712
     49 H13        -7.1826   -2.3986    3.2898 H         1 <0>         0.0819
     50 H14        -5.8365   -1.2450    3.0975 H         1 <0>         0.0928
     51 H15        -8.1315   -0.1652    3.3099 H         1 <0>         0.0950
     52 H16        -7.2323    0.2860    1.8439 H         1 <0>         0.0991
     53 H17        -9.4501   -2.2487   -0.1764 H         1 <0>         0.1352
     54 H18        -7.1500   -4.5714   -0.3727 H         1 <0>         0.0888
     55 H19        -7.9108   -3.4533   -1.5365 H         1 <0>         0.0861
     56 H20        -5.5333   -3.9185   -2.1178 H         1 <0>         0.0794
     57 H21        -5.8098   -2.2048   -1.7518 H         1 <0>         0.0677
     58 H22        -5.4352   -4.6547    2.1131 H         1 <0>         0.1258
     59 H23        -4.8567   -6.7480    3.2716 H         1 <0>         0.1264
     60 H24        -1.3234   -4.9063    4.8185 H         1 <0>         0.1315
     61 H25        -1.9043   -2.8199    3.6489 H         1 <0>         0.1318
     62 H26        -2.7876   -8.6602    2.6450 H         1 <0>         0.1300
     63 H27        -4.2707  -10.6014    2.3438 H         1 <0>         0.1302
     64 H28        -5.8654  -11.2205    4.1134 H         1 <0>         0.1287
     65 H29        -5.9810   -9.9009    6.1879 H         1 <0>         0.1314
     66 H30        -4.4931   -7.9655    6.5021 H         1 <0>         0.1315
     67 H31        -1.6316   -4.1407    1.7085 H         1 <0>         0.0716
     68 H32        -3.2764   -4.4518    1.1036 H         1 <0>         0.0823
     69 H33        -1.8724   -4.7212    0.0432 H         1 <0>         0.0498
     70 H34         0.8661   -2.7826   -0.2609 H         1 <0>         0.3778
@<TRIPOS>BOND
     1    1    2 1
     2    1   40 1
     3    1   41 1
     4    1   42 1
     5    2    3 3
     6    3    4 1
     7    4    9 1
     8    4    5 1
     9    4   39 1
    10    5    6 1
    11    5   43 1
    12    5   44 1
    13    6    7 1
    14    6   45 1
    15    6   46 1
    16    7    8 1
    17    7   23 1
    18    7    9 1
    19    9   10 1
    20    9   38 1
    21   10   11 1
    22   10   47 1
    23   10   48 1
    24   11   12 1
    25   11   13 1
    26   11   25 1
    27   13   23 1
    28   13   14 2
    29   14   20 1
    30   14   15 1
    31   15   16 1
    32   15   49 1
    33   15   50 1
    34   16   17 1
    35   16   51 1
    36   16   52 1
    37   17   18 2
    38   17   19 1
    39   19   20 2
    40   19   53 1
    41   20   21 1
    42   21   22 1
    43   21   54 1
    44   21   55 1
    45   22   23 1
    46   22   56 1
    47   22   57 1
    48   23   24 1
    49   25   30 ar
    50   25   26 ar
    51   26   27 ar
    52   26   58 1
    53   27   28 ar
    54   27   59 1
    55   28   29 ar
    56   28   31 1
    57   29   30 ar
    58   29   60 1
    59   30   61 1
    60   31   32 1
    61   32   37 ar
    62   32   33 ar
    63   33   34 ar
    64   33   62 1
    65   34   35 ar
    66   34   63 1
    67   35   36 ar
    68   35   64 1
    69   36   37 ar
    70   36   65 1
    71   37   66 1
    72   38   67 1
    73   38   68 1
    74   38   69 1
    75   39   70 1
@<TRIPOS>MOLECULE
CHEMBL386915
   55    57     0     0     0
SMALL
USER_CHARGES

@<TRIPOS>ATOM
      1 C1          0.9469   -0.6264    1.1230 C.3       1 <0>        -0.1535
      2 C2          0.0051   -0.7787   -0.0731 C.3       1 <0>        -0.0127
      3 C3          0.2939   -2.1022   -0.7844 C.3       1 <0>        -0.1354
      4 C4         -1.4450   -0.7677    0.4148 C.3       1 <0>        -0.1538
      5 C5         -1.5794    0.1994    1.5927 C.3       1 <0>         0.0773
      6 C6         -3.0032    0.1313    2.1486 C.3       1 <0>         0.1048
      7 N1         -3.1447    1.0893    3.2479 N.pl3     1 <0>        -0.6308
      8 C7         -2.5465    0.8279    4.5683 C.3       1 <0>         0.0999
      9 C8         -3.5716    1.2451    5.6324 C.3       1 <0>         0.0453
     10 O1         -3.8910    2.6262    5.4480 O.3       1 <0>        -0.3133
     11 C9         -4.2193    3.0384    4.1949 C.ar      1 <0>         0.0625
     12 C10        -3.8501    2.2911    3.0776 C.ar      1 <0>         0.1503
     13 C11        -4.1818    2.7274    1.8052 C.ar      1 <0>        -0.1658
     14 C12        -4.8791    3.9108    1.6426 C.ar      1 <0>        -0.1047
     15 C13        -5.2446    4.6564    2.7475 C.ar      1 <0>        -0.1349
     16 C14        -4.9241    4.2197    4.0239 C.ar      1 <0>        -0.1090
     17 C15        -1.2844    1.6240    1.1192 C.3       1 <0>         0.4668
     18 F1         -2.0957    1.9277    0.0206 F         1 <0>        -0.1717
     19 F2         -1.5483    2.5244    2.1569 F         1 <0>        -0.1629
     20 F3          0.0606    1.7226    0.7470 F         1 <0>        -0.1560
     21 O2         -0.6507   -0.1643    2.6161 O.3       1 <0>        -0.5219
     22 C16         0.2213    0.3642   -1.0314 C.ar      1 <0>        -0.0665
     23 C17        -0.8509    0.9058   -1.7142 C.ar      1 <0>        -0.1333
     24 C18        -0.6527    1.9560   -2.5942 C.ar      1 <0>         0.0691
     25 C19         0.6199    2.4647   -2.7917 C.ar      1 <0>        -0.1218
     26 C20         1.6935    1.9251   -2.1104 C.ar      1 <0>        -0.1780
     27 C21         1.4956    0.8765   -1.2240 C.ar      1 <0>         0.1286
     28 O3          2.5505    0.3481   -0.5486 O.3       1 <0>        -0.2952
     29 C22         3.8341    0.9253   -0.7961 C.3       1 <0>         0.0159
     30 F4         -1.7019    2.4847   -3.2612 F         1 <0>        -0.1400
     31 H1          1.9734   -0.8034    0.8020 H         1 <0>         0.0670
     32 H2          0.8613    0.3825    1.5267 H         1 <0>         0.0943
     33 H3          0.6769   -1.3497    1.8924 H         1 <0>         0.0551
     34 H4          0.0536   -2.9319   -0.1196 H         1 <0>         0.0604
     35 H5         -0.3152   -2.1707   -1.6858 H         1 <0>         0.0547
     36 H6          1.3489   -2.1468   -1.0545 H         1 <0>         0.0637
     37 H7         -2.0987   -0.4460   -0.3959 H         1 <0>         0.0932
     38 H8         -1.7285   -1.7707    0.7340 H         1 <0>         0.0966
     39 H9         -3.7136    0.3766    1.3591 H         1 <0>         0.0990
     40 H10        -3.2020   -0.8754    2.5162 H         1 <0>         0.0940
     41 H11        -2.3206   -0.2337    4.6684 H         1 <0>         0.0897
     42 H12        -1.6344    1.4134    4.6836 H         1 <0>         0.0767
     43 H13        -4.4745    0.6439    5.5255 H         1 <0>         0.0644
     44 H14        -3.1476    1.0976    6.6257 H         1 <0>         0.1143
     45 H15        -3.8967    2.1444    0.9419 H         1 <0>         0.1251
     46 H16        -5.1380    4.2527    0.6514 H         1 <0>         0.1232
     47 H17        -5.7896    5.5796    2.6167 H         1 <0>         0.1260
     48 H18        -5.2118    4.8057    4.8842 H         1 <0>         0.1299
     49 H19        -0.7787   -1.0574    2.9641 H         1 <0>         0.3864
     50 H20        -1.8439    0.5095   -1.5616 H         1 <0>         0.1447
     51 H21         0.7732    3.2835   -3.4790 H         1 <0>         0.1357
     52 H22         2.6861    2.3218   -2.2649 H         1 <0>         0.1365
     53 H23         4.0813    0.8219   -1.8527 H         1 <0>         0.0544
     54 H24         3.8149    1.9819   -0.5292 H         1 <0>         0.0551
     55 H25         4.5851    0.4123   -0.1953 H         1 <0>         0.1004
@<TRIPOS>BOND
     1    1    2 1
     2    1   31 1
     3    1   32 1
     4    1   33 1
     5    2    3 1
     6    2    4 1
     7    2   22 1
     8    3   34 1
     9    3   35 1
    10    3   36 1
    11    4    5 1
    12    4   37 1
    13    4   38 1
    14    5    6 1
    15    5   17 1
    16    5   21 1
    17    6    7 1
    18    6   39 1
    19    6   40 1
    20    7   12 1
    21    7    8 1
    22    8    9 1
    23    8   41 1
    24    8   42 1
    25    9   10 1
    26    9   43 1
    27    9   44 1
    28   10   11 1
    29   11   16 ar
    30   11   12 ar
    31   12   13 ar
    32   13   14 ar
    33   13   45 1
    34   14   15 ar
    35   14   46 1
    36   15   16 ar
    37   15   47 1
    38   16   48 1
    39   17   18 1
    40   17   19 1
    41   17   20 1
    42   21   49 1
    43   22   27 ar
    44   22   23 ar
    45   23   24 ar
    46   23   50 1
    47   24   25 ar
    48   24   30 1
    49   25   26 ar
    50   25   51 1
    51   26   27 ar
    52   26   52 1
    53   27   28 1
    54   28   29 1
    55   29   53 1
    56   29   54 1
    57   29   55 1
@<TRIPOS>MOLECULE
CHEMBL386915__1
   55    57     0     0     0
SMALL
USER_CHARGES

@<TRIPOS>ATOM
      1 C1         -0.2123    0.6758   -1.9436 C.3       1 <0>        -0.1369
      2 C2         -0.3783    0.8439   -0.4319 C.3       1 <0>        -0.0110
      3 C3         -0.6594    2.3130   -0.1100 C.3       1 <0>        -0.1531
      4 C4         -1.5470   -0.0169    0.0517 C.3       1 <0>        -0.1550
      5 C5         -2.1737    0.6241    1.2916 C.3       1 <0>         0.0764
      6 C6         -3.4095   -0.1752    1.7096 C.3       1 <0>         0.1016
      7 N1         -4.0455    0.4742    2.8585 N.pl3     1 <0>        -0.6315
      8 C7         -4.9855    1.5936    2.6771 C.3       1 <0>         0.0975
      9 C8         -4.6685    2.6439    3.7512 C.3       1 <0>         0.0478
     10 O1         -4.7930    2.0373    5.0397 O.3       1 <0>        -0.3139
     11 C9         -4.1614    0.8512    5.2449 C.ar      1 <0>         0.0678
     12 C10        -3.7847    0.0474    4.1702 C.ar      1 <0>         0.1491
     13 C11        -3.1508   -1.1642    4.3931 C.ar      1 <0>        -0.1622
     14 C12        -2.8936   -1.5793    5.6873 C.ar      1 <0>        -0.1045
     15 C13        -3.2681   -0.7868    6.7559 C.ar      1 <0>        -0.1344
     16 C14        -3.8938    0.4313    6.5386 C.ar      1 <0>        -0.1097
     17 C15        -1.1564    0.6251    2.4345 C.3       1 <0>         0.4656
     18 F1         -0.0066    1.3145    2.0347 F         1 <0>        -0.1540
     19 F2         -1.7125    1.2550    3.5531 F         1 <0>        -0.1648
     20 F3         -0.8202   -0.6931    2.7607 F         1 <0>        -0.1713
     21 O2         -2.5547    1.9684    0.9919 O.3       1 <0>        -0.5195
     22 C16         0.8864    0.4104    0.2635 C.ar      1 <0>        -0.0480
     23 C17         0.8875   -0.7242    1.0520 C.ar      1 <0>        -0.1573
     24 C18         2.0492   -1.1230    1.6906 C.ar      1 <0>         0.0751
     25 C19         3.2114   -0.3854    1.5406 C.ar      1 <0>        -0.1272
     26 C20         3.2132    0.7493    0.7530 C.ar      1 <0>        -0.1716
     27 C21         2.0512    1.1469    0.1078 C.ar      1 <0>         0.1164
     28 O3          2.0529    2.2604   -0.6722 O.3       1 <0>        -0.3021
     29 C22         3.2880    2.9699   -0.7872 C.3       1 <0>         0.0210
     30 F4          2.0488   -2.2327    2.4613 F         1 <0>        -0.1392
     31 H1          0.5610    1.3552   -2.3020 H         1 <0>         0.0694
     32 H2          0.0755   -0.3518   -2.1654 H         1 <0>         0.0532
     33 H3         -1.1553    0.9043   -2.4402 H         1 <0>         0.0591
     34 H4         -1.6038    2.6106   -0.5657 H         1 <0>         0.0586
     35 H5         -0.7205    2.4430    0.9705 H         1 <0>         0.0925
     36 H6          0.1458    2.9322   -0.5054 H         1 <0>         0.0596
     37 H7         -2.2955   -0.0897   -0.7373 H         1 <0>         0.0974
     38 H8         -1.1847   -1.0140    0.3019 H         1 <0>         0.0938
     39 H9         -4.1142   -0.2154    0.8789 H         1 <0>         0.0989
     40 H10        -3.1121   -1.1875    1.9831 H         1 <0>         0.0996
     41 H11        -4.8567    2.0279    1.6856 H         1 <0>         0.0920
     42 H12        -6.0096    1.2398    2.7965 H         1 <0>         0.0699
     43 H13        -3.6503    3.0088    3.6161 H         1 <0>         0.0722
     44 H14        -5.3701    3.4740    3.6688 H         1 <0>         0.1120
     45 H15        -2.8577   -1.7831    3.5581 H         1 <0>         0.1219
     46 H16        -2.4001   -2.5238    5.8629 H         1 <0>         0.1234
     47 H17        -3.0650   -1.1139    7.7649 H         1 <0>         0.1258
     48 H18        -4.1846    1.0472    7.3767 H         1 <0>         0.1296
     49 H19        -3.2562    2.0401    0.3302 H         1 <0>         0.3825
     50 H20        -0.0185   -1.3001    1.1704 H         1 <0>         0.1543
     51 H21         4.1169   -0.6972    2.0399 H         1 <0>         0.1358
     52 H22         4.1198    1.3247    0.6365 H         1 <0>         0.1367
     53 H23         3.6088    3.3032    0.1997 H         1 <0>         0.0552
     54 H24         4.0462    2.3128   -1.2131 H         1 <0>         0.0550
     55 H25         3.1509    3.8350   -1.4360 H         1 <0>         0.1008
@<TRIPOS>BOND
     1    1    2 1
     2    1   31 1
     3    1   32 1
     4    1   33 1
     5    2    3 1
     6    2    4 1
     7    2   22 1
     8    3   34 1
     9    3   35 1
    10    3   36 1
    11    4    5 1
    12    4   37 1
    13    4   38 1
    14    5    6 1
    15    5   17 1
    16    5   21 1
    17    6    7 1
    18    6   39 1
    19    6   40 1
    20    7   12 1
    21    7    8 1
    22    8    9 1
    23    8   41 1
    24    8   42 1
    25    9   10 1
    26    9   43 1
    27    9   44 1
    28   10   11 1
    29   11   16 ar
    30   11   12 ar
    31   12   13 ar
    32   13   14 ar
    33   13   45 1
    34   14   15 ar
    35   14   46 1
    36   15   16 ar
    37   15   47 1
    38   16   48 1
    39   17   18 1
    40   17   19 1
    41   17   20 1
    42   21   49 1
    43   22   27 ar
    44   22   23 ar
    45   23   24 ar
    46   23   50 1
    47   24   25 ar
    48   24   30 1
    49   25   26 ar
    50   25   51 1
    51   26   27 ar
    52   26   52 1
    53   27   28 1
    54   28   29 1
    55   29   53 1
    56   29   54 1
    57   29   55 1
@<TRIPOS>MOLECULE
CHEMBL259820
   59    63     0     0     0
SMALL
USER_CHARGES

@<TRIPOS>ATOM
      1 C1         -0.0228    1.4075   -0.1523 C.3       1 <0>        -0.1154
      2 C2          0.2740   -0.0671   -0.0601 C.ar      1 <0>        -0.1213
      3 C3          0.7898   -0.7375   -1.1558 C.ar      1 <0>        -0.0888
      4 C4          1.0657   -2.0914   -1.0814 C.ar      1 <0>        -0.1278
      5 C5          0.8287   -2.7851    0.0870 C.ar      1 <0>        -0.0785
      6 C6          0.3079   -2.1171    1.1993 C.ar      1 <0>        -0.0812
      7 C7          0.0361   -0.7451    1.1188 C.ar      1 <0>         0.1069
      8 F1         -0.4617   -0.0888    2.1896 F         1 <0>        -0.1341
      9 C8          0.0518   -2.8497    2.4490 C.2       1 <0>        -0.1032
     10 C9         -0.0319   -4.1909    2.4366 C.2       1 <0>         0.1011
     11 C10        -0.1456   -5.0357    3.6304 C.ar      1 <0>        -0.0187
     12 C11        -1.1913   -6.0088    3.5491 C.ar      1 <0>        -0.0925
     13 C12        -1.6379   -6.5991    4.7164 C.ar      1 <0>        -0.0443
     14 C13        -1.0213   -6.3173    5.9244 C.ar      1 <0>        -0.1963
     15 C14         0.1264   -5.5381    5.9652 C.ar      1 <0>         0.2366
     16 C15         0.6281   -4.9673    4.7812 C.ar      1 <0>        -0.0822
     17 C16         1.9836   -4.3967    4.8282 C.2       1 <0>        -0.0567
     18 C17         2.6182   -4.2505    5.9855 C.2       1 <0>        -0.1682
     19 C18         2.0474   -4.6591    7.3093 C.3       1 <0>         0.2144
     20 N1          0.7413   -5.2981    7.1872 N.pl3     1 <0>        -0.7247
     21 C19         3.0193   -5.6473    7.9738 C.3       1 <0>        -0.1604
     22 C20         1.9232   -3.4233    8.2103 C.3       1 <0>        -0.1585
     23 C21         2.7315   -4.0246    3.5717 C.3       1 <0>        -0.1167
     24 C22        -1.6957   -6.3334    2.1980 C.ar      1 <0>        -0.0855
     25 C23        -1.0532   -5.7642    1.0824 C.ar      1 <0>         0.1126
     26 C24        -1.4669   -6.0774   -0.2010 C.ar      1 <0>        -0.1235
     27 C25        -2.5337   -6.9329   -0.4010 C.ar      1 <0>        -0.1027
     28 C26        -3.1951   -7.4773    0.6856 C.ar      1 <0>         0.0689
     29 C27        -2.7842   -7.1780    1.9840 C.ar      1 <0>         0.1069
     30 O1         -3.4872   -7.7216    3.0100 O.3       1 <0>        -0.3268
     31 C28        -4.6035   -6.9754    3.4989 C.3       1 <0>         0.0346
     32 O2         -4.2539   -8.3124    0.4970 O.3       1 <0>        -0.4883
     33 O3         -0.0295   -4.8804    1.2460 O.3       1 <0>        -0.2415
     34 H1          0.8608    1.9749    0.1400 H         1 <0>         0.0746
     35 H2         -0.2941    1.6601   -1.1773 H         1 <0>         0.0733
     36 H3         -0.8497    1.6540    0.5137 H         1 <0>         0.0696
     37 H4          0.9775   -0.2009   -2.0741 H         1 <0>         0.1323
     38 H5          1.4676   -2.6068   -1.9412 H         1 <0>         0.1314
     39 H6          1.0446   -3.8419    0.1423 H         1 <0>         0.1505
     40 H7         -0.0689   -2.3097    3.3765 H         1 <0>         0.1469
     41 H8         -2.4618   -7.2935    4.7248 H         1 <0>         0.1437
     42 H9         -1.4345   -6.7062    6.8416 H         1 <0>         0.1291
     43 H10         3.6125   -3.8067    5.9627 H         1 <0>         0.1286
     44 H11         0.2700   -5.5710    8.0100 H         1 <0>         0.4055
     45 H12         3.9860   -5.1647    8.1179 H         1 <0>         0.0694
     46 H13         2.6197   -5.9560    8.9397 H         1 <0>         0.0611
     47 H14         3.1415   -6.5219    7.3348 H         1 <0>         0.0596
     48 H15         1.2648   -2.6941    7.7381 H         1 <0>         0.0607
     49 H16         1.5081   -3.7169    9.1744 H         1 <0>         0.0613
     50 H17         2.9084   -2.9811    8.3583 H         1 <0>         0.0707
     51 H18         2.5120   -2.9892    3.3114 H         1 <0>         0.0727
     52 H19         3.8025   -4.1379    3.7394 H         1 <0>         0.0680
     53 H20         2.4202   -4.6780    2.7567 H         1 <0>         0.0680
     54 H21        -0.9500   -5.6513   -1.0493 H         1 <0>         0.1431
     55 H22        -2.8450   -7.1755   -1.4028 H         1 <0>         0.1440
     56 H23        -4.2620   -6.0051    3.8595 H         1 <0>         0.0476
     57 H24        -5.3243   -6.8308    2.6942 H         1 <0>         0.0538
     58 H25        -5.0756   -7.5210    4.3159 H         1 <0>         0.0978
     59 H26        -4.0113   -9.2461    0.4294 H         1 <0>         0.3924
@<TRIPOS>BOND
     1    1    2 1
     2    1   34 1
     3    1   35 1
     4    1   36 1
     5    2    7 ar
     6    2    3 ar
     7    3    4 ar
     8    3   37 1
     9    4    5 ar
    10    4   38 1
    11    5    6 ar
    12    5   39 1
    13    6    7 ar
    14    6    9 1
    15    7    8 1
    16    9   10 2
    17    9   40 1
    18   10   33 1
    19   10   11 1
    20   11   16 ar
    21   11   12 ar
    22   12   13 ar
    23   12   24 1
    24   13   14 ar
    25   13   41 1
    26   14   15 ar
    27   14   42 1
    28   15   20 1
    29   15   16 ar
    30   16   17 1
    31   17   18 2
    32   17   23 1
    33   18   19 1
    34   18   43 1
    35   19   20 1
    36   19   21 1
    37   19   22 1
    38   20   44 1
    39   21   45 1
    40   21   46 1
    41   21   47 1
    42   22   48 1
    43   22   49 1
    44   22   50 1
    45   23   51 1
    46   23   52 1
    47   23   53 1
    48   24   29 ar
    49   24   25 ar
    50   25   26 ar
    51   25   33 1
    52   26   27 ar
    53   26   54 1
    54   27   28 ar
    55   27   55 1
    56   28   29 ar
    57   28   32 1
    58   29   30 1
    59   30   31 1
    60   31   56 1
    61   31   57 1
    62   31   58 1
    63   32   59 1
@<TRIPOS>MOLECULE
CHEMBL444286
   57    61     0     0     0
SMALL
USER_CHARGES

@<TRIPOS>ATOM
      1 C1         -1.6587    1.4861   -0.9944 C.3       1 <0>        -0.1312
      2 C2         -1.6382   -0.0208   -1.0027 C.2       1 <0>        -0.1246
      3 C3         -1.1234   -0.6744    0.0092 C.2       1 <0>        -0.1957
      4 C4         -1.1029   -2.1813    0.0009 C.3       1 <0>         0.0875
      5 H1         -1.6066   -2.5614   -0.8880 H         1 <0>         0.1101
      6 O1          0.2572   -2.6651    0.0527 O.3       1 <0>        -0.3458
      7 C5          0.4902   -2.9370    1.4423 C.3       1 <0>         0.2634
      8 O2         -0.7369   -3.4853    1.9459 O.3       1 <0>        -0.3519
      9 C6         -1.7746   -2.7334    1.2747 C.3       1 <0>         0.0888
     10 H2         -2.1189   -1.9147    1.9066 H         1 <0>         0.0935
     11 C7         -2.9257   -3.6354    0.9109 C.2       1 <0>        -0.1870
     12 C8         -2.9684   -4.8610    1.3715 C.2       1 <0>        -0.1230
     13 C9         -4.1195   -5.7630    1.0077 C.3       1 <0>        -0.1309
     14 C10         1.6444   -3.9263    1.6211 C.3       1 <0>        -0.0151
     15 C11         2.8262   -3.0955    2.0769 C.2       1 <0>        -0.0660
     16 C12         4.1133   -3.3618    1.8561 C.2       1 <0>        -0.1024
     17 C13         4.3689   -4.5637    1.0375 C.2       1 <0>         0.1147
     18 N1          5.4967   -5.2744    0.8216 N.pl3     1 <0>        -0.3096
     19 N2          5.1639   -6.3435   -0.0281 N.2       1 <0>        -0.2910
     20 C14         3.8848   -6.2717   -0.3211 C.2       1 <0>         0.0699
     21 C15         3.3463   -5.1691    0.3186 C.2       1 <0>        -0.2209
     22 C16         1.9419   -4.6242    0.2914 C.3       1 <0>        -0.0246
     23 C17         6.7653   -4.9974    1.3481 C.ar      1 <0>         0.1461
     24 C18         7.1691   -3.6817    1.5330 C.ar      1 <0>        -0.1033
     25 C19         8.4196   -3.4107    2.0525 C.ar      1 <0>        -0.1305
     26 C20         9.2707   -4.4501    2.3891 C.ar      1 <0>         0.0988
     27 C21         8.8700   -5.7629    2.2051 C.ar      1 <0>        -0.1323
     28 C22         7.6181   -6.0381    1.6912 C.ar      1 <0>        -0.0804
     29 F1         10.4936   -4.1829    2.8973 F         1 <0>        -0.1331
     30 C23         2.2503   -1.9127    2.8192 C.3       1 <0>        -0.0891
     31 C24         0.8649   -1.6573    2.1946 C.3       1 <0>        -0.1600
     32 C25         1.2811   -4.9645    2.6845 C.3       1 <0>        -0.1234
     33 H3         -2.1219    1.8482   -1.9122 H         1 <0>         0.0648
     34 H4         -2.2309    1.8369   -0.1356 H         1 <0>         0.0687
     35 H5         -0.6379    1.8629   -0.9294 H         1 <0>         0.0688
     36 H6         -2.0480   -0.5618   -1.8428 H         1 <0>         0.1117
     37 H7         -0.7136   -0.1334    0.8493 H         1 <0>         0.1166
     38 H8         -3.7155   -3.2714    0.2704 H         1 <0>         0.1227
     39 H9         -2.1787   -5.2250    2.0120 H         1 <0>         0.1196
     40 H10        -3.9826   -6.7355    1.4805 H         1 <0>         0.0632
     41 H11        -5.0527   -5.3188    1.3541 H         1 <0>         0.0670
     42 H12        -4.1559   -5.8870   -0.0746 H         1 <0>         0.0670
     43 H13         4.9092   -2.7447    2.2462 H         1 <0>         0.1427
     44 H14         3.3442   -6.9584   -0.9555 H         1 <0>         0.1896
     45 H15         1.2369   -5.4425    0.1443 H         1 <0>         0.0807
     46 H16         1.8450   -3.9085   -0.5249 H         1 <0>         0.0905
     47 H17         6.5058   -2.8709    1.2703 H         1 <0>         0.1423
     48 H18         8.7341   -2.3876    2.1961 H         1 <0>         0.1477
     49 H19         9.5353   -6.5720    2.4679 H         1 <0>         0.1472
     50 H20         7.3041   -7.0621    1.5524 H         1 <0>         0.1451
     51 H21         2.1475   -2.1476    3.8787 H         1 <0>         0.0903
     52 H22         2.8888   -1.0391    2.6875 H         1 <0>         0.0835
     53 H23         0.9156   -0.8171    1.5021 H         1 <0>         0.0904
     54 H24         0.1331   -1.4550    2.9767 H         1 <0>         0.0874
     55 H25         0.3882   -5.5066    2.3730 H         1 <0>         0.0724
     56 H26         2.1075   -5.6648    2.8058 H         1 <0>         0.0598
     57 H27         1.0888   -4.4618    3.6323 H         1 <0>         0.0596
@<TRIPOS>BOND
     1    1    2 1
     2    1   33 1
     3    1   34 1
     4    1   35 1
     5    2    3 2
     6    2   36 1
     7    3    4 1
     8    3   37 1
     9    4    5 1
    10    4    9 1
    11    4    6 1
    12    6    7 1
    13    7   31 1
    14    7    8 1
    15    7   14 1
    16    8    9 1
    17    9   10 1
    18    9   11 1
    19   11   12 2
    20   11   38 1
    21   12   13 1
    22   12   39 1
    23   13   40 1
    24   13   41 1
    25   13   42 1
    26   14   22 1
    27   14   15 1
    28   14   32 1
    29   15   16 2
    30   15   30 1
    31   16   17 1
    32   16   43 1
    33   17   21 2
    34   17   18 1
    35   18   19 1
    36   18   23 1
    37   19   20 2
    38   20   21 1
    39   20   44 1
    40   21   22 1
    41   22   45 1
    42   22   46 1
    43   23   28 ar
    44   23   24 ar
    45   24   25 ar
    46   24   47 1
    47   25   26 ar
    48   25   48 1
    49   26   27 ar
    50   26   29 1
    51   27   28 ar
    52   27   49 1
    53   28   50 1
    54   30   31 1
    55   30   51 1
    56   30   52 1
    57   31   53 1
    58   31   54 1
    59   32   55 1
    60   32   56 1
    61   32   57 1
@<TRIPOS>MOLECULE
CHEMBL65469
   53    57     0     0     0
SMALL
USER_CHARGES

@<TRIPOS>ATOM
      1 C1         -0.0173    1.4248    0.0099 C.3       1 <0>         0.0195
      2 O1          0.0021   -0.0041    0.0020 O.3       1 <0>        -0.3060
      3 C2          0.6056   -0.6069   -1.0554 C.ar      1 <0>         0.1739
      4 C3          1.1740    0.1579   -2.0642 C.ar      1 <0>        -0.2313
      5 C4          1.7858   -0.4580   -3.1401 C.ar      1 <0>        -0.0420
      6 C5          1.8282   -1.8377   -3.2300 C.ar      1 <0>        -0.1764
      7 C6          1.2605   -2.6158   -2.2359 C.ar      1 <0>         0.1696
      8 C7          0.6628   -1.9953   -1.1309 C.ar      1 <0>        -0.1514
      9 C8          0.0910   -2.8569   -0.0705 C.ar      1 <0>        -0.0251
     10 C9         -0.7527   -2.3460    0.9084 C.ar      1 <0>        -0.0783
     11 C10        -1.2775   -3.1905    1.8659 C.ar      1 <0>        -0.1439
     12 C11        -0.9639   -4.5447    1.8473 C.ar      1 <0>         0.1404
     13 C12        -0.1135   -5.0547    0.8721 C.ar      1 <0>        -0.1043
     14 C13         0.4209   -4.2147   -0.0786 C.ar      1 <0>        -0.1051
     15 C14         1.3837   -4.7304   -1.1158 C.3       1 <0>         0.1864
     16 O2          1.2653   -3.9696   -2.3244 O.3       1 <0>        -0.3004
     17 C15         1.0715   -6.1748   -1.4110 C.ar      1 <0>        -0.0863
     18 C16         0.1047   -6.4960   -2.3453 C.ar      1 <0>        -0.0863
     19 C17        -0.1817   -7.8210   -2.6160 C.ar      1 <0>        -0.1193
     20 C18         0.4990   -8.8248   -1.9527 C.ar      1 <0>        -0.1118
     21 C19         1.4664   -8.5036   -1.0190 C.ar      1 <0>        -0.1187
     22 C20         1.7558   -7.1786   -0.7514 C.ar      1 <0>        -0.1076
     23 N1         -1.5050   -5.3969    2.8125 N.pl3     1 <0>        -1.0542
     24 S1         -3.1116   -5.2945    3.2005 S.o2      1 <0>         2.6890
     25 O3         -3.3579   -6.2954    4.1787 O.2       1 <0>        -0.9491
     26 O4         -3.3869   -3.9196    3.4312 O.2       1 <0>        -0.9454
     27 C21        -4.0244   -5.7569    1.7660 C.ar      1 <0>        -0.6758
     28 C22        -4.3915   -4.7972    0.8412 C.ar      1 <0>        -0.0145
     29 C23        -5.1077   -5.1600   -0.2841 C.ar      1 <0>        -0.1386
     30 C24        -5.4563   -6.4825   -0.4850 C.ar      1 <0>        -0.0591
     31 C25        -5.0884   -7.4423    0.4394 C.ar      1 <0>        -0.1396
     32 C26        -4.3686   -7.0802    1.5626 C.ar      1 <0>        -0.0188
     33 H1          1.0053    1.8021    0.0021 H         1 <0>         0.0592
     34 H2         -0.5445    1.7859   -0.8732 H         1 <0>         0.0593
     35 H3         -0.5275    1.7763    0.9067 H         1 <0>         0.1042
     36 H4          1.1386    1.2359   -2.0085 H         1 <0>         0.1350
     37 H5          2.2341    0.1432   -3.9172 H         1 <0>         0.1358
     38 H6          2.3047   -2.3085   -4.0773 H         1 <0>         0.1367
     39 H7         -0.9961   -1.2939    0.9202 H         1 <0>         0.1558
     40 H8         -1.9326   -2.7989    2.6300 H         1 <0>         0.1623
     41 H9          0.1271   -6.1075    0.8608 H         1 <0>         0.1350
     42 H10         2.4011   -4.6560   -0.7317 H         1 <0>         0.0930
     43 H11        -0.4271   -5.7118   -2.8635 H         1 <0>         0.1260
     44 H12        -0.9376   -8.0720   -3.3455 H         1 <0>         0.1241
     45 H13         0.2747   -9.8600   -2.1637 H         1 <0>         0.1240
     46 H14         1.9980   -9.2878   -0.5005 H         1 <0>         0.1267
     47 H15         2.5143   -6.9277   -0.0247 H         1 <0>         0.1258
     48 H16        -0.9397   -6.0488    3.2557 H         1 <0>         0.4277
     49 H17        -4.1192   -3.7640    0.9982 H         1 <0>         0.1395
     50 H18        -5.3951   -4.4102   -1.0063 H         1 <0>         0.1338
     51 H19        -6.0164   -6.7658   -1.3638 H         1 <0>         0.1322
     52 H20        -5.3611   -8.4755    0.2826 H         1 <0>         0.1342
     53 H21        -4.0779   -7.8306    2.2829 H         1 <0>         0.1399
@<TRIPOS>BOND
     1    1    2 1
     2    1   33 1
     3    1   34 1
     4    1   35 1
     5    2    3 1
     6    3    8 ar
     7    3    4 ar
     8    4    5 ar
     9    4   36 1
    10    5    6 ar
    11    5   37 1
    12    6    7 ar
    13    6   38 1
    14    7   16 1
    15    7    8 ar
    16    8    9 1
    17    9   14 ar
    18    9   10 ar
    19   10   11 ar
    20   10   39 1
    21   11   12 ar
    22   11   40 1
    23   12   13 ar
    24   12   23 1
    25   13   14 ar
    26   13   41 1
    27   14   15 1
    28   15   16 1
    29   15   17 1
    30   15   42 1
    31   17   22 ar
    32   17   18 ar
    33   18   19 ar
    34   18   43 1
    35   19   20 ar
    36   19   44 1
    37   20   21 ar
    38   20   45 1
    39   21   22 ar
    40   21   46 1
    41   22   47 1
    42   23   24 1
    43   23   48 1
    44   24   25 2
    45   24   26 2
    46   24   27 1
    47   27   32 ar
    48   27   28 ar
    49   28   29 ar
    50   28   49 1
    51   29   30 ar
    52   29   50 1
    53   30   31 ar
    54   30   51 1
    55   31   32 ar
    56   31   52 1
    57   32   53 1
@<TRIPOS>MOLECULE
CHEMBL65469__1
   52    56     0     0     0
SMALL
USER_CHARGES

@<TRIPOS>ATOM
      1 C1         -0.0173    1.4248    0.0099 C.3       1 <0>         0.0220
      2 O1          0.0021   -0.0041    0.0020 O.3       1 <0>        -0.3001
      3 C2          0.6056   -0.6069   -1.0554 C.ar      1 <0>         0.1455
      4 C3          1.1740    0.1579   -2.0642 C.ar      1 <0>        -0.2277
      5 C4          1.7858   -0.4580   -3.1401 C.ar      1 <0>        -0.0743
      6 C5          1.8282   -1.8377   -3.2300 C.ar      1 <0>        -0.1735
      7 C6          1.2605   -2.6158   -2.2359 C.ar      1 <0>         0.1469
      8 C7          0.6628   -1.9953   -1.1309 C.ar      1 <0>        -0.0944
      9 C8          0.0910   -2.8569   -0.0705 C.ar      1 <0>        -0.1504
     10 C9         -0.7527   -2.3460    0.9084 C.ar      1 <0>        -0.0313
     11 C10        -1.2775   -3.1905    1.8659 C.ar      1 <0>        -0.2651
     12 C11        -0.9639   -4.5447    1.8473 C.ar      1 <0>         0.2907
     13 C12        -0.1135   -5.0547    0.8721 C.ar      1 <0>        -0.1562
     14 C13         0.4209   -4.2147   -0.0786 C.ar      1 <0>        -0.0758
     15 C14         1.3837   -4.7304   -1.1158 C.3       1 <0>         0.1863
     16 O2          1.2653   -3.9696   -2.3244 O.3       1 <0>        -0.3072
     17 C15         1.0715   -6.1748   -1.4110 C.ar      1 <0>        -0.0682
     18 C16         0.1047   -6.4960   -2.3453 C.ar      1 <0>        -0.0868
     19 C17        -0.1817   -7.8210   -2.6160 C.ar      1 <0>        -0.1230
     20 C18         0.4990   -8.8248   -1.9527 C.ar      1 <0>        -0.1202
     21 C19         1.4664   -8.5036   -1.0190 C.ar      1 <0>        -0.1204
     22 C20         1.7558   -7.1786   -0.7514 C.ar      1 <0>        -0.1031
     23 N1         -1.5050   -5.3969    2.8125 N.2       1 <0>        -1.0840
     24 S1         -2.5176   -4.7936    3.9757 S.o2      1 <0>         2.6021
     25 O3         -1.7356   -3.9253    4.7842 O.2       1 <0>        -1.0285
     26 O4         -3.6924   -4.3580    3.3053 O.2       1 <0>        -1.0281
     27 C21        -2.9949   -6.1438    5.0023 C.ar      1 <0>        -0.6146
     28 C22        -4.1194   -6.8850    4.6909 C.ar      1 <0>        -0.0249
     29 C23        -4.4939   -7.9442    5.4963 C.ar      1 <0>        -0.1474
     30 C24        -3.7435   -8.2626    6.6127 C.ar      1 <0>        -0.0844
     31 C25        -2.6184   -7.5220    6.9236 C.ar      1 <0>        -0.1477
     32 C26        -2.2416   -6.4654    6.1158 C.ar      1 <0>        -0.0251
     33 H1          1.0053    1.8021    0.0021 H         1 <0>         0.0527
     34 H2         -0.5445    1.7859   -0.8732 H         1 <0>         0.0527
     35 H3         -0.5275    1.7763    0.9067 H         1 <0>         0.0975
     36 H4          1.1386    1.2359   -2.0085 H         1 <0>         0.1253
     37 H5          2.2341    0.1432   -3.9172 H         1 <0>         0.1249
     38 H6          2.3047   -2.3085   -4.0773 H         1 <0>         0.1273
     39 H7         -0.9961   -1.2939    0.9202 H         1 <0>         0.1303
     40 H8         -1.9326   -2.7989    2.6300 H         1 <0>         0.1005
     41 H9          0.1271   -6.1075    0.8608 H         1 <0>         0.1207
     42 H10         2.4011   -4.6560   -0.7317 H         1 <0>         0.0832
     43 H11        -0.4271   -5.7118   -2.8635 H         1 <0>         0.1251
     44 H12        -0.9376   -8.0720   -3.3455 H         1 <0>         0.1198
     45 H13         0.2747   -9.8600   -2.1637 H         1 <0>         0.1181
     46 H14         1.9980   -9.2878   -0.5005 H         1 <0>         0.1215
     47 H15         2.5143   -6.9277   -0.0247 H         1 <0>         0.1240
     48 H16        -4.7057   -6.6362    3.8187 H         1 <0>         0.1356
     49 H17        -5.3729   -8.5228    5.2534 H         1 <0>         0.1256
     50 H18        -4.0365   -9.0897    7.2424 H         1 <0>         0.1229
     51 H19        -2.0324   -7.7705    7.7960 H         1 <0>         0.1256
     52 H20        -1.3605   -5.8891    6.3566 H         1 <0>         0.1357
@<TRIPOS>BOND
     1    1    2 1
     2    1   33 1
     3    1   34 1
     4    1   35 1
     5    2    3 1
     6    3    8 ar
     7    3    4 ar
     8    4    5 ar
     9    4   36 1
    10    5    6 ar
    11    5   37 1
    12    6    7 ar
    13    6   38 1
    14    7   16 1
    15    7    8 ar
    16    8    9 1
    17    9   14 ar
    18    9   10 ar
    19   10   11 ar
    20   10   39 1
    21   11   12 ar
    22   11   40 1
    23   12   13 ar
    24   12   23 1
    25   13   14 ar
    26   13   41 1
    27   14   15 1
    28   15   16 1
    29   15   17 1
    30   15   42 1
    31   17   22 ar
    32   17   18 ar
    33   18   19 ar
    34   18   43 1
    35   19   20 ar
    36   19   44 1
    37   20   21 ar
    38   20   45 1
    39   21   22 ar
    40   21   46 1
    41   22   47 1
    42   23   24 1
    43   24   25 2
    44   24   26 2
    45   24   27 1
    46   27   32 ar
    47   27   28 ar
    48   28   29 ar
    49   28   48 1
    50   29   30 ar
    51   29   49 1
    52   30   31 ar
    53   30   50 1
    54   31   32 ar
    55   31   51 1
    56   32   52 1
@<TRIPOS>MOLECULE
CHEMBL65469__2
   53    57     0     0     0
SMALL
USER_CHARGES

@<TRIPOS>ATOM
      1 C1         -0.0173    1.4248    0.0099 C.3       1 <0>         0.0193
      2 O1          0.0021   -0.0041    0.0020 O.3       1 <0>        -0.3054
      3 C2          0.6056   -0.6069   -1.0554 C.ar      1 <0>         0.1743
      4 C3          1.1740    0.1579   -2.0642 C.ar      1 <0>        -0.2327
      5 C4          1.7850   -0.4580   -3.1405 C.ar      1 <0>        -0.0411
      6 C5          1.8274   -1.8377   -3.2305 C.ar      1 <0>        -0.1809
      7 C6          1.2613   -2.6158   -2.2354 C.ar      1 <0>         0.1725
      8 C7          0.6628   -1.9953   -1.1309 C.ar      1 <0>        -0.1532
      9 C8          0.0910   -2.8569   -0.0705 C.ar      1 <0>        -0.0228
     10 C9         -0.7527   -2.3460    0.9084 C.ar      1 <0>        -0.0775
     11 C10        -1.2775   -3.1905    1.8659 C.ar      1 <0>        -0.1442
     12 C11        -0.9632   -4.5446    1.8478 C.ar      1 <0>         0.1418
     13 C12        -0.1128   -5.0545    0.8727 C.ar      1 <0>        -0.1073
     14 C13         0.4209   -4.2147   -0.0786 C.ar      1 <0>        -0.1016
     15 C14         1.3837   -4.7304   -1.1158 C.3       1 <0>         0.1857
     16 O2          1.2669   -3.9696   -2.3235 O.3       1 <0>        -0.2959
     17 C15         2.7903   -4.6276   -0.5847 C.ar      1 <0>        -0.1156
     18 C16         3.4526   -3.4145   -0.6122 C.ar      1 <0>        -0.1061
     19 C17         4.7428   -3.3202   -0.1250 C.ar      1 <0>        -0.1164
     20 C18         5.3705   -4.4389    0.3901 C.ar      1 <0>        -0.1127
     21 C19         4.7079   -5.6518    0.4185 C.ar      1 <0>        -0.1186
     22 C20         3.4162   -5.7451   -0.0648 C.ar      1 <0>        -0.1026
     23 N1         -1.5035   -5.3966    2.8136 N.pl3     1 <0>        -1.0544
     24 S1         -3.1101   -5.2949    3.2019 S.o2      1 <0>         2.6893
     25 O3         -3.3556   -6.2954    4.1807 O.2       1 <0>        -0.9490
     26 O4         -3.3860   -3.9200    3.4322 O.2       1 <0>        -0.9452
     27 C21        -4.0231   -5.7584    1.7680 C.ar      1 <0>        -0.6765
     28 C22        -4.3910   -4.7994    0.8429 C.ar      1 <0>        -0.0148
     29 C23        -5.1072   -5.1631   -0.2821 C.ar      1 <0>        -0.1387
     30 C24        -5.4552   -6.4859   -0.4823 C.ar      1 <0>        -0.0593
     31 C25        -5.0865   -7.4451    0.4424 C.ar      1 <0>        -0.1402
     32 C26        -4.3666   -7.0820    1.5652 C.ar      1 <0>        -0.0197
     33 H1          1.0053    1.8021    0.0021 H         1 <0>         0.0591
     34 H2         -0.5445    1.7859   -0.8732 H         1 <0>         0.0596
     35 H3         -0.5275    1.7763    0.9067 H         1 <0>         0.1043
     36 H4          1.1386    1.2359   -2.0085 H         1 <0>         0.1354
     37 H5          2.2327    0.1432   -3.9180 H         1 <0>         0.1361
     38 H6          2.3032   -2.3085   -4.0781 H         1 <0>         0.1372
     39 H7         -0.9961   -1.2939    0.9202 H         1 <0>         0.1557
     40 H8         -1.9326   -2.7989    2.6300 H         1 <0>         0.1624
     41 H9          0.1284   -6.1072    0.8618 H         1 <0>         0.1332
     42 H10         1.1579   -5.7751   -1.3293 H         1 <0>         0.1328
     43 H11         2.9621   -2.5405   -1.0147 H         1 <0>         0.1264
     44 H12         5.2604   -2.3727   -0.1471 H         1 <0>         0.1232
     45 H13         6.3788   -4.3654    0.7701 H         1 <0>         0.1239
     46 H14         5.1985   -6.5259    0.8206 H         1 <0>         0.1256
     47 H15         2.8971   -6.6919   -0.0392 H         1 <0>         0.1245
     48 H16        -0.9377   -6.0480    3.2569 H         1 <0>         0.4279
     49 H17        -4.1191   -3.7659    0.9992 H         1 <0>         0.1400
     50 H18        -5.3952   -4.4137   -1.0045 H         1 <0>         0.1343
     51 H19        -6.0153   -6.7699   -1.3608 H         1 <0>         0.1327
     52 H20        -5.3586   -8.4785    0.2862 H         1 <0>         0.1347
     53 H21        -4.0753   -7.8319    2.2858 H         1 <0>         0.1404
@<TRIPOS>BOND
     1    1    2 1
     2    1   33 1
     3    1   34 1
     4    1   35 1
     5    2    3 1
     6    3    8 ar
     7    3    4 ar
     8    4    5 ar
     9    4   36 1
    10    5    6 ar
    11    5   37 1
    12    6    7 ar
    13    6   38 1
    14    7   16 1
    15    7    8 ar
    16    8    9 1
    17    9   14 ar
    18    9   10 ar
    19   10   11 ar
    20   10   39 1
    21   11   12 ar
    22   11   40 1
    23   12   13 ar
    24   12   23 1
    25   13   14 ar
    26   13   41 1
    27   14   15 1
    28   15   16 1
    29   15   17 1
    30   15   42 1
    31   17   22 ar
    32   17   18 ar
    33   18   19 ar
    34   18   43 1
    35   19   20 ar
    36   19   44 1
    37   20   21 ar
    38   20   45 1
    39   21   22 ar
    40   21   46 1
    41   22   47 1
    42   23   24 1
    43   23   48 1
    44   24   25 2
    45   24   26 2
    46   24   27 1
    47   27   32 ar
    48   27   28 ar
    49   28   29 ar
    50   28   49 1
    51   29   30 ar
    52   29   50 1
    53   30   31 ar
    54   30   51 1
    55   31   32 ar
    56   31   52 1
    57   32   53 1
@<TRIPOS>MOLECULE
CHEMBL65469__3
   52    56     0     0     0
SMALL
USER_CHARGES

@<TRIPOS>ATOM
      1 C1         -0.0173    1.4248    0.0099 C.3       1 <0>         0.0218
      2 O1          0.0021   -0.0041    0.0020 O.3       1 <0>        -0.2995
      3 C2          0.6056   -0.6069   -1.0554 C.ar      1 <0>         0.1454
      4 C3          1.1740    0.1579   -2.0642 C.ar      1 <0>        -0.2288
      5 C4          1.7850   -0.4580   -3.1405 C.ar      1 <0>        -0.0733
      6 C5          1.8274   -1.8377   -3.2305 C.ar      1 <0>        -0.1776
      7 C6          1.2613   -2.6158   -2.2354 C.ar      1 <0>         0.1492
      8 C7          0.6628   -1.9953   -1.1309 C.ar      1 <0>        -0.0958
      9 C8          0.0910   -2.8569   -0.0705 C.ar      1 <0>        -0.1472
     10 C9         -0.7527   -2.3460    0.9084 C.ar      1 <0>        -0.0309
     11 C10        -1.2775   -3.1905    1.8659 C.ar      1 <0>        -0.2642
     12 C11        -0.9632   -4.5446    1.8478 C.ar      1 <0>         0.2920
     13 C12        -0.1128   -5.0545    0.8727 C.ar      1 <0>        -0.1600
     14 C13         0.4209   -4.2147   -0.0786 C.ar      1 <0>        -0.0708
     15 C14         1.3837   -4.7304   -1.1158 C.3       1 <0>         0.1840
     16 O2          1.2669   -3.9696   -2.3235 O.3       1 <0>        -0.3026
     17 C15         2.7903   -4.6276   -0.5847 C.ar      1 <0>        -0.0996
     18 C16         3.4526   -3.4145   -0.6122 C.ar      1 <0>        -0.1046
     19 C17         4.7428   -3.3202   -0.1250 C.ar      1 <0>        -0.1212
     20 C18         5.3705   -4.4389    0.3901 C.ar      1 <0>        -0.1222
     21 C19         4.7079   -5.6518    0.4185 C.ar      1 <0>        -0.1224
     22 C20         3.4162   -5.7451   -0.0648 C.ar      1 <0>        -0.1013
     23 N1         -1.5035   -5.3966    2.8136 N.2       1 <0>        -1.0854
     24 S1         -2.5161   -4.7933    3.9768 S.o2      1 <0>         2.6027
     25 O3         -1.7344   -3.9242    4.7847 O.2       1 <0>        -1.0281
     26 O4         -3.6913   -4.3587    3.3065 O.2       1 <0>        -1.0280
     27 C21        -2.9924   -6.1433    5.0041 C.ar      1 <0>        -0.6149
     28 C22        -4.1166   -6.8852    4.6934 C.ar      1 <0>        -0.0250
     29 C23        -4.4903   -7.9443    5.4994 C.ar      1 <0>        -0.1475
     30 C24        -3.7394   -8.2617    6.6158 C.ar      1 <0>        -0.0843
     31 C25        -2.6147   -7.5204    6.9260 C.ar      1 <0>        -0.1476
     32 C26        -2.2386   -6.4640    6.1176 C.ar      1 <0>        -0.0251
     33 H1          1.0053    1.8021    0.0021 H         1 <0>         0.0527
     34 H2         -0.5445    1.7859   -0.8732 H         1 <0>         0.0530
     35 H3         -0.5275    1.7763    0.9067 H         1 <0>         0.0975
     36 H4          1.1386    1.2359   -2.0085 H         1 <0>         0.1256
     37 H5          2.2327    0.1432   -3.9180 H         1 <0>         0.1252
     38 H6          2.3032   -2.3085   -4.0781 H         1 <0>         0.1279
     39 H7         -0.9961   -1.2939    0.9202 H         1 <0>         0.1302
     40 H8         -1.9326   -2.7989    2.6300 H         1 <0>         0.1007
     41 H9          0.1284   -6.1072    0.8618 H         1 <0>         0.1177
     42 H10         1.1579   -5.7751   -1.3293 H         1 <0>         0.1274
     43 H11         2.9621   -2.5405   -1.0147 H         1 <0>         0.1275
     44 H12         5.2604   -2.3727   -0.1471 H         1 <0>         0.1182
     45 H13         6.3788   -4.3654    0.7701 H         1 <0>         0.1178
     46 H14         5.1985   -6.5259    0.8206 H         1 <0>         0.1209
     47 H15         2.8971   -6.6919   -0.0392 H         1 <0>         0.1250
     48 H16        -4.7033   -6.6372    3.8212 H         1 <0>         0.1359
     49 H17        -5.3690   -8.5235    5.2571 H         1 <0>         0.1257
     50 H18        -4.0318   -9.0887    7.2459 H         1 <0>         0.1229
     51 H19        -2.0283   -7.7682    7.7984 H         1 <0>         0.1256
     52 H20        -1.3578   -5.8871    6.3579 H         1 <0>         0.1357
@<TRIPOS>BOND
     1    1    2 1
     2    1   33 1
     3    1   34 1
     4    1   35 1
     5    2    3 1
     6    3    8 ar
     7    3    4 ar
     8    4    5 ar
     9    4   36 1
    10    5    6 ar
    11    5   37 1
    12    6    7 ar
    13    6   38 1
    14    7   16 1
    15    7    8 ar
    16    8    9 1
    17    9   14 ar
    18    9   10 ar
    19   10   11 ar
    20   10   39 1
    21   11   12 ar
    22   11   40 1
    23   12   13 ar
    24   12   23 1
    25   13   14 ar
    26   13   41 1
    27   14   15 1
    28   15   16 1
    29   15   17 1
    30   15   42 1
    31   17   22 ar
    32   17   18 ar
    33   18   19 ar
    34   18   43 1
    35   19   20 ar
    36   19   44 1
    37   20   21 ar
    38   20   45 1
    39   21   22 ar
    40   21   46 1
    41   22   47 1
    42   23   24 1
    43   24   25 2
    44   24   26 2
    45   24   27 1
    46   27   32 ar
    47   27   28 ar
    48   28   29 ar
    49   28   48 1
    50   29   30 ar
    51   29   49 1
    52   30   31 ar
    53   30   50 1
    54   31   32 ar
    55   31   51 1
    56   32   52 1
@<TRIPOS>MOLECULE
CHEMBL1676
   66    70     0     0     0
SMALL
USER_CHARGES

@<TRIPOS>ATOM
      1 C1          2.5454    3.0972    1.0149 C.3       1 <0>        -0.1395
      2 C2          2.5742    1.6254    0.5981 C.3       1 <0>        -0.0691
      3 H1          3.3279    1.4702   -0.1739 H         1 <0>         0.0904
      4 C3          1.1777    1.1921    0.0745 C.3       1 <0>        -0.1097
      5 C4          0.5241    0.5715    1.3141 C.3       1 <0>        -0.0826
      6 H2          0.2038    1.3517    2.0047 H         1 <0>         0.0911
      7 C5         -0.6149   -0.3953    1.0461 C.3       1 <0>        -0.0958
      8 H3         -0.2656   -1.2077    0.4089 H         1 <0>         0.1194
      9 C6         -1.7688    0.3390    0.3603 C.3       1 <0>        -0.1410
     10 C7         -2.9001   -0.6481    0.0558 C.3       1 <0>         0.1262
     11 H4         -2.5569   -1.3902   -0.6651 H         1 <0>         0.1078
     12 C8         -3.2891   -1.3346    1.3517 C.2       1 <0>        -0.0768
     13 C9         -4.5652   -1.3548    1.7103 C.2       1 <0>        -0.1939
     14 C10        -4.9782   -1.9932    2.9697 C.2       1 <0>         0.4083
     15 O1         -6.1526   -2.0481    3.2836 O.2       1 <0>        -0.4471
     16 C11        -3.9381   -2.5647    3.8417 C.2       1 <0>        -0.2066
     17 C12        -2.6707   -2.5391    3.4603 C.2       1 <0>        -0.0675
     18 C13        -2.1999   -1.9647    2.1685 C.3       1 <0>        -0.0245
     19 C14        -1.0701   -0.9584    2.4019 C.3       1 <0>         0.1582
     20 C15         0.0798   -1.6259    3.1500 C.3       1 <0>         0.0967
     21 H5         -0.2658   -1.9247    4.1397 H         1 <0>         0.0734
     22 C16         1.2822   -0.6809    3.3031 C.3       1 <0>        -0.1546
     23 C17         1.7025   -0.2376    1.9193 C.3       1 <0>        -0.0654
     24 C18         2.8786    0.7310    1.8257 C.3       1 <0>         0.1209
     25 C19         4.1644   -0.0260    1.6142 C.2       1 <0>         0.3096
     26 O2          4.1652   -1.0510    0.9649 O.2       1 <0>        -0.4195
     27 S1          5.5797    0.5424    2.2695 S.3       1 <0>        -0.1136
     28 C20         6.8215   -0.6762    1.7563 C.3       1 <0>         0.0841
     29 F1          7.1201   -0.4956    0.4015 F         1 <0>        -0.1855
     30 O3          2.9605    1.5267    3.0098 O.3       1 <0>        -0.3099
     31 C21         3.3584    0.9052    4.1390 C.2       1 <0>         0.5498
     32 O4          3.7215   -0.2549    4.0990 O.2       1 <0>        -0.4701
     33 C22         3.3531    1.6274    5.4133 C.2       1 <0>        -0.0696
     34 C23         3.7342    1.1222    6.6243 C.2       1 <0>        -0.0978
     35 C24         3.5693    2.1533    7.5614 C.2       1 <0>        -0.2285
     36 C25         3.1008    3.2294    6.8908 C.2       1 <0>         0.0151
     37 O5          2.9767    2.9102    5.5963 O.3       1 <0>        -0.1492
     38 C26         1.9764   -1.4752    1.0622 C.3       1 <0>        -0.1460
     39 O6          0.4917   -2.7892    2.4296 O.3       1 <0>        -0.5385
     40 F2         -1.5647    0.0854    3.1912 F         1 <0>        -0.1904
     41 C27        -1.5948   -3.1020    1.3431 C.3       1 <0>        -0.1388
     42 F3         -4.0012    0.0410   -0.4636 F         1 <0>        -0.1963
     43 H6          3.4960    3.3625    1.4777 H         1 <0>         0.0648
     44 H7          2.3828    3.7207    0.1357 H         1 <0>         0.0655
     45 H8          1.7369    3.2571    1.7282 H         1 <0>         0.0672
     46 H9          0.6095    2.0565   -0.2692 H         1 <0>         0.0859
     47 H10         1.2761    0.4530   -0.7206 H         1 <0>         0.0810
     48 H11        -2.1404    1.1249    1.0179 H         1 <0>         0.0882
     49 H12        -1.4144    0.7828   -0.5700 H         1 <0>         0.0950
     50 H13        -5.3079   -0.8983    1.0727 H         1 <0>         0.1484
     51 H14        -4.2088   -3.0036    4.7906 H         1 <0>         0.1438
     52 H15        -1.9325   -2.9604    4.1266 H         1 <0>         0.1306
     53 H16         0.9958    0.1925    3.8888 H         1 <0>         0.0748
     54 H17         2.1050   -1.2031    3.7915 H         1 <0>         0.1038
     55 H18         7.7269   -0.5439    2.3487 H         1 <0>         0.1337
     56 H19         6.4297   -1.6815    1.9111 H         1 <0>         0.1127
     57 H20         4.0929    0.1228    6.8219 H         1 <0>         0.1650
     58 H21         3.7772    2.0976    8.6197 H         1 <0>         0.1631
     59 H22         2.8681    4.1897    7.3269 H         1 <0>         0.2165
     60 H23         2.3974   -1.1682    0.1048 H         1 <0>         0.0592
     61 H24         2.6829   -2.1253    1.5782 H         1 <0>         0.0652
     62 H25         1.0438   -2.0136    0.8932 H         1 <0>         0.0973
     63 H26         1.2216   -3.2701    2.8432 H         1 <0>         0.3800
     64 H27        -0.8897   -2.6912    0.6205 H         1 <0>         0.0793
     65 H28        -1.0748   -3.7945    2.0050 H         1 <0>         0.0991
     66 H29        -2.3890   -3.6304    0.8157 H         1 <0>         0.0569
@<TRIPOS>BOND
     1    1    2 1
     2    1   43 1
     3    1   44 1
     4    1   45 1
     5    2    3 1
     6    2   24 1
     7    2    4 1
     8    4    5 1
     9    4   46 1
    10    4   47 1
    11    5    6 1
    12    5   23 1
    13    5    7 1
    14    7    8 1
    15    7   19 1
    16    7    9 1
    17    9   10 1
    18    9   48 1
    19    9   49 1
    20   10   11 1
    21   10   12 1
    22   10   42 1
    23   12   18 1
    24   12   13 2
    25   13   14 1
    26   13   50 1
    27   14   15 2
    28   14   16 1
    29   16   17 2
    30   16   51 1
    31   17   18 1
    32   17   52 1
    33   18   19 1
    34   18   41 1
    35   19   20 1
    36   19   40 1
    37   20   21 1
    38   20   22 1
    39   20   39 1
    40   22   23 1
    41   22   53 1
    42   22   54 1
    43   23   24 1
    44   23   38 1
    45   24   25 1
    46   24   30 1
    47   25   26 2
    48   25   27 1
    49   27   28 1
    50   28   29 1
    51   28   55 1
    52   28   56 1
    53   30   31 1
    54   31   32 2
    55   31   33 1
    56   33   37 1
    57   33   34 2
    58   34   35 1
    59   34   57 1
    60   35   36 2
    61   35   58 1
    62   36   37 1
    63   36   59 1
    64   38   60 1
    65   38   61 1
    66   38   62 1
    67   39   63 1
    68   41   64 1
    69   41   65 1
    70   41   66 1
@<TRIPOS>MOLECULE
CHEMBL1093055
   56    60     0     0     0
SMALL
USER_CHARGES

@<TRIPOS>ATOM
      1 C1         -0.0184    1.5028    0.0103 C.3       1 <0>        -0.0882
      2 C2          0.0021   -0.0041    0.0020 C.2       1 <0>         0.1224
      3 C3          0.0081   -0.8300   -1.1479 C.2       1 <0>        -0.2271
      4 C4          0.0275   -2.1223   -0.7297 C.2       1 <0>         0.0940
      5 O1          0.0336   -2.1202    0.6114 O.3       1 <0>        -0.0774
      6 N1          0.0230   -0.7745    1.0504 N.2       1 <0>        -0.3186
      7 C5          0.0393   -3.3415   -1.6153 C.3       1 <0>        -0.0909
      8 C6         -0.0053   -0.3667   -2.5581 C.ar      1 <0>        -0.0030
      9 C7         -1.1073    0.3249   -3.0563 C.ar      1 <0>        -0.1058
     10 C8         -1.1143    0.7538   -4.3682 C.ar      1 <0>        -0.0949
     11 C9         -0.0299    0.4981   -5.1878 C.ar      1 <0>        -0.1087
     12 C10         1.0667   -0.1881   -4.6984 C.ar      1 <0>        -0.0948
     13 C11         1.0865   -0.6169   -3.3866 C.ar      1 <0>        -0.1056
     14 C12        -0.0435    0.9685   -6.6195 C.3       1 <0>         0.1634
     15 N2          0.5265    2.3158   -6.6963 N.am      1 <0>        -0.7234
     16 C13         0.6169    2.9425   -7.8861 C.2       1 <0>         0.5685
     17 O2          0.2255    2.3895   -8.8957 O.2       1 <0>        -0.5131
     18 C14         1.1912    4.2999   -7.9635 C.ar      1 <0>        -0.2361
     19 C15         1.6505    4.9433   -6.8060 C.ar      1 <0>         0.2168
     20 N3          2.1642    6.1495   -6.8530 N.ar      1 <0>        -0.4989
     21 C16         2.2760    6.8216   -7.9951 C.ar      1 <0>         0.3451
     22 C17         1.8376    6.2441   -9.2041 C.ar      1 <0>        -0.2370
     23 C18         1.2892    4.9577   -9.1922 C.ar      1 <0>         0.1430
     24 Cl1         0.7421    4.2040  -10.6572 Cl        1 <0>         0.0029
     25 C19         2.0988    7.2273  -10.2505 C.2       1 <0>         0.1009
     26 N4          2.6373    8.2695   -9.6854 N.2       1 <0>        -0.2243
     27 N5          2.7617    8.0594   -8.3089 N.pl3     1 <0>        -0.3731
     28 C20         3.3241    9.0165   -7.3530 C.3       1 <0>         0.1616
     29 C21         2.5487   10.3484   -7.4205 C.3       1 <0>        -0.1331
     30 C22         3.6375   11.4322   -7.2225 C.3       1 <0>        -0.1222
     31 C23         4.8424   10.8532   -8.0048 C.3       1 <0>        -0.1216
     32 C24         4.7824    9.3374   -7.7244 C.3       1 <0>        -0.1329
     33 H1          1.0042    1.8801    0.0026 H         1 <0>         0.0911
     34 H2         -0.5455    1.8639   -0.8728 H         1 <0>         0.0880
     35 H3         -0.5286    1.8543    0.9071 H         1 <0>         0.0842
     36 H4          1.0697   -3.6217   -1.8340 H         1 <0>         0.0971
     37 H5         -0.4609   -4.1653   -1.1061 H         1 <0>         0.0897
     38 H6         -0.4823   -3.1195   -2.5462 H         1 <0>         0.0965
     39 H7         -1.9547    0.5248   -2.4172 H         1 <0>         0.1254
     40 H8         -1.9683    1.2898   -4.7555 H         1 <0>         0.1284
     41 H9          1.9108   -0.3852   -5.3426 H         1 <0>         0.1283
     42 H10         1.9451   -1.1487   -3.0041 H         1 <0>         0.1249
     43 H11         0.5488    0.2879   -7.2311 H         1 <0>         0.0810
     44 H12        -1.0698    0.9867   -6.9862 H         1 <0>         0.0810
     45 H13         0.8388    2.7570   -5.8908 H         1 <0>         0.3994
     46 H14         1.5798    4.4356   -5.8555 H         1 <0>         0.1746
     47 H15         1.8848    7.1112  -11.3027 H         1 <0>         0.2074
     48 H16         3.2773    8.6072   -6.3438 H         1 <0>         0.1142
     49 H17         2.0698   10.4621   -8.3931 H         1 <0>         0.0825
     50 H18         1.8091   10.4003   -6.6216 H         1 <0>         0.0746
     51 H19         3.3191   12.3824   -7.6512 H         1 <0>         0.0747
     52 H20         3.8814   11.5461   -6.1663 H         1 <0>         0.0724
     53 H21         4.7338   11.0484   -9.0717 H         1 <0>         0.0716
     54 H22         5.7766   11.2734   -7.6323 H         1 <0>         0.0714
     55 H23         5.4432    9.0847   -6.8953 H         1 <0>         0.0780
     56 H24         5.0717    8.7811   -8.6160 H         1 <0>         0.0756
@<TRIPOS>BOND
     1    1    2 1
     2    1   33 1
     3    1   34 1
     4    1   35 1
     5    2    6 2
     6    2    3 1
     7    3    4 2
     8    3    8 1
     9    4    5 1
    10    4    7 1
    11    5    6 1
    12    7   36 1
    13    7   37 1
    14    7   38 1
    15    8   13 ar
    16    8    9 ar
    17    9   10 ar
    18    9   39 1
    19   10   11 ar
    20   10   40 1
    21   11   12 ar
    22   11   14 1
    23   12   13 ar
    24   12   41 1
    25   13   42 1
    26   14   15 1
    27   14   43 1
    28   14   44 1
    29   15   16 am
    30   15   45 1
    31   16   17 2
    32   16   18 1
    33   18   23 ar
    34   18   19 ar
    35   19   20 ar
    36   19   46 1
    37   20   21 ar
    38   21   27 1
    39   21   22 ar
    40   22   23 ar
    41   22   25 1
    42   23   24 1
    43   25   26 2
    44   25   47 1
    45   26   27 1
    46   27   28 1
    47   28   32 1
    48   28   29 1
    49   28   48 1
    50   29   30 1
    51   29   49 1
    52   29   50 1
    53   30   31 1
    54   30   51 1
    55   30   52 1
    56   31   32 1
    57   31   53 1
    58   31   54 1
    59   32   55 1
    60   32   56 1
@<TRIPOS>MOLECULE
CHEMBL1094797
   50    52     0     0     0
SMALL
USER_CHARGES

@<TRIPOS>ATOM
      1 C1         -0.3927    1.6134   -0.1054 C.3       1 <0>        -0.1526
      2 C2         -0.2593    0.0893   -0.1161 C.3       1 <0>        -0.1240
      3 C3         -1.6452   -0.5450    0.0175 C.3       1 <0>        -0.0996
      4 C4         -1.5138   -2.0462    0.0070 C.2       1 <0>         0.1999
      5 C5         -1.3982   -2.7112    1.1701 C.2       1 <0>        -0.2307
      6 C6         -1.2560   -4.2063    1.2073 C.3       1 <0>         0.0861
      7 H1         -1.8951   -4.6080    1.9936 H         1 <0>         0.0945
      8 C7         -1.6518   -4.8119   -0.1093 C.2       1 <0>        -0.1468
      9 C8         -1.7570   -4.0660   -1.2198 C.2       1 <0>         0.2098
     10 N1         -1.5190   -2.7164   -1.1848 N.pl3     1 <0>        -0.6276
     11 C9         -2.1480   -4.7186   -2.5207 C.3       1 <0>        -0.1322
     12 C10        -1.9223   -6.2163   -0.1809 C.1       1 <0>         0.2630
     13 N2         -2.1369   -7.3304   -0.2377 N.1       1 <0>        -0.4193
     14 C11         0.1782   -4.5609    1.5043 C.ar      1 <0>        -0.0145
     15 C12         1.1872   -4.1571    0.6765 C.ar      1 <0>        -0.1536
     16 C13         2.5056   -4.4965    0.9707 C.ar      1 <0>         0.1337
     17 N3          2.8162   -5.2017    2.0315 N.ar      1 <0>        -0.4730
     18 C14         1.8772   -5.6280    2.8817 C.ar      1 <0>         0.1292
     19 C15         0.5160   -5.3124    2.6452 C.ar      1 <0>        -0.0878
     20 C16        -0.4660   -5.7580    3.5448 C.ar      1 <0>        -0.1032
     21 C17        -0.0986   -6.4830    4.6369 C.ar      1 <0>        -0.1125
     22 C18         1.2399   -6.7894    4.8747 C.ar      1 <0>        -0.1019
     23 C19         2.2161   -6.3844    4.0174 C.ar      1 <0>        -0.0915
     24 C20        -1.4104   -1.9875    2.3844 C.2       1 <0>         0.5312
     25 O1         -0.3643   -1.7347    2.9525 O.2       1 <0>        -0.4844
     26 O2         -2.5821   -1.5770    2.9136 O.3       1 <0>        -0.3513
     27 C21        -2.5197   -0.8506    4.1426 C.3       1 <0>         0.0574
     28 C22        -3.9351   -0.4726    4.5839 C.3       1 <0>        -0.1525
     29 H2          0.5947    2.0653   -0.2005 H         1 <0>         0.0612
     30 H3         -1.0187    1.9292   -0.9399 H         1 <0>         0.0572
     31 H4         -0.8491    1.9316    0.8319 H         1 <0>         0.0563
     32 H5          0.1971   -0.2289   -1.0534 H         1 <0>         0.0674
     33 H6          0.3668   -0.2265    0.7185 H         1 <0>         0.0743
     34 H7         -2.1016   -0.2267    0.9548 H         1 <0>         0.0950
     35 H8         -2.2712   -0.2292   -0.8171 H         1 <0>         0.0923
     36 H9         -1.3497   -2.2357   -2.0101 H         1 <0>         0.4230
     37 H10        -3.2330   -4.7022   -2.6238 H         1 <0>         0.0959
     38 H11        -1.6960   -4.1749   -3.3502 H         1 <0>         0.0856
     39 H12        -1.7978   -5.7508   -2.5290 H         1 <0>         0.0888
     40 H13         0.9627   -3.5755   -0.2054 H         1 <0>         0.1289
     41 H14         3.2929   -4.1704    0.3073 H         1 <0>         0.1582
     42 H15        -1.5066   -5.5265    3.3714 H         1 <0>         0.1260
     43 H16        -0.8545   -6.8250    5.3284 H         1 <0>         0.1278
     44 H17         1.5058   -7.3661    5.7483 H         1 <0>         0.1308
     45 H18         3.2486   -6.6308    4.2164 H         1 <0>         0.1360
     46 H19        -2.0540   -1.4712    4.9082 H         1 <0>         0.0681
     47 H20        -1.9296    0.0547    4.0000 H         1 <0>         0.0677
     48 H21        -4.5252   -1.3778    4.7264 H         1 <0>         0.0672
     49 H22        -3.8876    0.0815    5.5213 H         1 <0>         0.0799
     50 H23        -4.4008    0.1480    3.8183 H         1 <0>         0.0664
@<TRIPOS>BOND
     1    1    2 1
     2    1   29 1
     3    1   30 1
     4    1   31 1
     5    2    3 1
     6    2   32 1
     7    2   33 1
     8    3    4 1
     9    3   34 1
    10    3   35 1
    11    4   10 1
    12    4    5 2
    13    5    6 1
    14    5   24 1
    15    6    7 1
    16    6    8 1
    17    6   14 1
    18    8    9 2
    19    8   12 1
    20    9   10 1
    21    9   11 1
    22   10   36 1
    23   11   37 1
    24   11   38 1
    25   11   39 1
    26   12   13 3
    27   14   19 ar
    28   14   15 ar
    29   15   16 ar
    30   15   40 1
    31   16   17 ar
    32   16   41 1
    33   17   18 ar
    34   18   23 ar
    35   18   19 ar
    36   19   20 ar
    37   20   21 ar
    38   20   42 1
    39   21   22 ar
    40   21   43 1
    41   22   23 ar
    42   22   44 1
    43   23   45 1
    44   24   25 2
    45   24   26 1
    46   26   27 1
    47   27   28 1
    48   27   46 1
    49   27   47 1
    50   28   48 1
    51   28   49 1
    52   28   50 1
@<TRIPOS>MOLECULE
CHEMBL457035
   57    60     0     0     0
SMALL
USER_CHARGES

@<TRIPOS>ATOM
      1 C1         -0.0187    1.5258    0.0104 C.3       1 <0>        -0.1621
      2 C2          0.0021   -0.0041    0.0020 C.3       1 <0>        -0.1204
      3 C3          0.7182   -0.4975   -1.2568 C.3       1 <0>        -0.0066
      4 C4          2.1560    0.0171   -1.2406 C.3       1 <0>        -0.1058
      5 C5          2.8430   -0.4745    0.0377 C.3       1 <0>        -0.1419
      6 C6          2.8304   -2.0025    0.0839 C.3       1 <0>         0.2540
      7 C7          1.3876   -2.5161    0.0380 C.3       1 <0>        -0.0972
      8 C8          0.7308   -2.0253   -1.2508 C.3       1 <0>        -0.0741
      9 H1          1.2981   -2.3872   -2.1083 H         1 <0>         0.0768
     10 C9         -0.7137   -2.5161   -1.3521 C.3       1 <0>        -0.1166
     11 C10        -1.2263   -2.2031   -2.7574 C.3       1 <0>        -0.0812
     12 C11        -0.9321   -0.7765   -3.1403 C.ar      1 <0>        -0.0318
     13 C12        -0.0156    0.0122   -2.4645 C.ar      1 <0>        -0.0955
     14 C13         0.2221    1.3165   -2.8750 C.ar      1 <0>        -0.0728
     15 C14        -0.4299    1.8374   -3.9728 C.ar      1 <0>        -0.2127
     16 C15        -1.3327    1.0500   -4.6723 C.ar      1 <0>         0.1275
     17 C16        -1.6058   -0.2520   -4.2348 C.ar      1 <0>        -0.1533
     18 O1         -1.9840    1.5545   -5.7531 O.3       1 <0>        -0.3086
     19 C17        -1.6910    2.9055   -6.1148 C.3       1 <0>         0.1016
     20 C18        -2.5006    3.2880   -7.3269 C.ar      1 <0>        -0.0521
     21 C19        -2.0047    3.0827   -8.6053 C.ar      1 <0>        -0.1497
     22 C20        -2.7758    3.4460   -9.6932 C.ar      1 <0>         0.0988
     23 N1         -3.9688    3.9821   -9.5254 N.ar      1 <0>        -0.4777
     24 C21        -4.4722    4.1918   -8.3248 C.ar      1 <0>         0.0989
     25 C22        -3.7615    3.8482   -7.1903 C.ar      1 <0>        -0.1496
     26 C23         3.5745   -2.5324   -1.0703 C.1       1 <0>        -0.2144
     27 C24         4.1680   -2.9549   -1.9909 C.1       1 <0>        -0.1646
     28 C25         4.9122   -3.4847   -3.1452 C.3       1 <0>        -0.0459
     29 O2          3.4534   -2.4457    1.2912 O.3       1 <0>        -0.5497
     30 H2          1.0039    1.9031    0.0027 H         1 <0>         0.0555
     31 H3         -0.5459    1.8868   -0.8726 H         1 <0>         0.0618
     32 H4         -0.5289    1.8773    0.9072 H         1 <0>         0.0532
     33 H5          0.5293   -0.3651    0.8851 H         1 <0>         0.0744
     34 H6         -1.0205   -0.3814    0.0098 H         1 <0>         0.0678
     35 H7          2.6899   -0.3632   -2.1115 H         1 <0>         0.0669
     36 H8          2.1541    1.1069   -1.2582 H         1 <0>         0.0739
     37 H9          3.8738   -0.1206    0.0534 H         1 <0>         0.0679
     38 H10         2.3143   -0.0820    0.9064 H         1 <0>         0.0860
     39 H11         1.3871   -3.6060    0.0562 H         1 <0>         0.0747
     40 H12         0.8364   -2.1342    0.8973 H         1 <0>         0.0854
     41 H13        -0.7498   -3.5915   -1.1784 H         1 <0>         0.0720
     42 H14        -1.3292   -2.0028   -0.6133 H         1 <0>         0.0741
     43 H15        -0.7435   -2.8711   -3.4707 H         1 <0>         0.0787
     44 H16        -2.3035   -2.3665   -2.7893 H         1 <0>         0.0789
     45 H17         0.9247    1.9293   -2.3297 H         1 <0>         0.1270
     46 H18        -0.2390    2.8531   -4.2862 H         1 <0>         0.1263
     47 H19        -2.3154   -0.8651   -4.7706 H         1 <0>         0.1289
     48 H20        -1.9437    3.5665   -5.2857 H         1 <0>         0.0762
     49 H21        -0.6292    2.9985   -6.3429 H         1 <0>         0.0760
     50 H22        -1.0280    2.6447   -8.7491 H         1 <0>         0.1376
     51 H23        -2.3967    3.2894  -10.6923 H         1 <0>         0.1603
     52 H24        -5.4529    4.6335   -8.2269 H         1 <0>         0.1603
     53 H25        -4.1812    4.0179   -6.2098 H         1 <0>         0.1378
     54 H26         4.9041   -4.5743   -3.1136 H         1 <0>         0.0819
     55 H27         4.4421   -3.1445   -4.0678 H         1 <0>         0.0817
     56 H28         5.9415   -3.1278   -3.1088 H         1 <0>         0.0814
     57 H29         4.3737   -2.1642    1.3852 H         1 <0>         0.3805
@<TRIPOS>BOND
     1    1    2 1
     2    1   30 1
     3    1   31 1
     4    1   32 1
     5    2    3 1
     6    2   33 1
     7    2   34 1
     8    3    8 1
     9    3   13 1
    10    3    4 1
    11    4    5 1
    12    4   35 1
    13    4   36 1
    14    5    6 1
    15    5   37 1
    16    5   38 1
    17    6    7 1
    18    6   26 1
    19    6   29 1
    20    7    8 1
    21    7   39 1
    22    7   40 1
    23    8    9 1
    24    8   10 1
    25   10   11 1
    26   10   41 1
    27   10   42 1
    28   11   12 1
    29   11   43 1
    30   11   44 1
    31   12   17 ar
    32   12   13 ar
    33   13   14 ar
    34   14   15 ar
    35   14   45 1
    36   15   16 ar
    37   15   46 1
    38   16   17 ar
    39   16   18 1
    40   17   47 1
    41   18   19 1
    42   19   20 1
    43   19   48 1
    44   19   49 1
    45   20   25 ar
    46   20   21 ar
    47   21   22 ar
    48   21   50 1
    49   22   23 ar
    50   22   51 1
    51   23   24 ar
    52   24   25 ar
    53   24   52 1
    54   25   53 1
    55   26   27 3
    56   27   28 1
    57   28   54 1
    58   28   55 1
    59   28   56 1
    60   29   57 1
@<TRIPOS>MOLECULE
CHEMBL437556
   68    73     0     0     0
SMALL
USER_CHARGES

@<TRIPOS>ATOM
      1 C1         -0.3179    1.3322   -0.6084 C.3       1 <0>        -0.1227
      2 C2         -0.2123   -0.1587   -0.3767 C.2       1 <0>        -0.0931
      3 C3         -0.3785   -0.9373   -1.4149 C.2       1 <0>        -0.1480
      4 C4         -0.2176   -2.4271   -1.3645 C.3       1 <0>         0.1436
      5 N1          0.5946   -2.8059   -0.1979 N.3       1 <0>        -0.6662
      6 C5          0.0527   -2.2292    1.0206 C.3       1 <0>         0.1193
      7 C6          0.0937   -0.6935    0.9686 C.3       1 <0>         0.0085
      8 C7         -0.6900   -0.2228    2.1445 C.2       1 <0>        -0.1003
      9 C8         -0.3393   -0.8129    3.3577 C.2       1 <0>        -0.0163
     10 C9          0.6551   -1.8928    3.3587 C.2       1 <0>        -0.1173
     11 C10         0.8498   -2.6167    2.2453 C.2       1 <0>        -0.1239
     12 C11        -0.9785   -0.3028    4.5802 C.ar      1 <0>        -0.1170
     13 C12        -1.7665    0.8607    4.4892 C.ar      1 <0>         0.1254
     14 C13        -2.3592    1.3907    5.6206 C.ar      1 <0>        -0.1280
     15 C14        -2.1946    0.7707    6.8456 C.ar      1 <0>        -0.0890
     16 C15        -1.4401   -0.3868    6.9468 C.ar      1 <0>         0.0590
     17 C16        -0.8341   -0.9308    5.8180 C.ar      1 <0>         0.1237
     18 O1         -0.1220   -2.0812    5.9455 O.3       1 <0>        -0.3202
     19 C17        -0.8547   -3.3069    5.8931 C.3       1 <0>         0.0370
     20 O2         -1.2901   -0.9980    8.1539 O.3       1 <0>        -0.4810
     21 O3         -1.9601    1.4448    3.2768 O.3       1 <0>        -0.2261
     22 C18        -1.7735    0.6539    2.1833 C.2       1 <0>         0.0967
     23 C19        -2.7229    0.6826    1.2137 C.2       1 <0>        -0.1181
     24 C20        -3.7357    1.7431    1.2103 C.ar      1 <0>        -0.0483
     25 C21        -3.6166    2.8307    2.0866 C.ar      1 <0>        -0.1021
     26 C22        -4.5611    3.8169    2.0808 C.ar      1 <0>        -0.1118
     27 C23        -5.6445    3.7428    1.2033 C.ar      1 <0>        -0.0442
     28 C24        -5.7661    2.6606    0.3296 C.ar      1 <0>        -0.1116
     29 C25        -4.8217    1.6742    0.3267 C.ar      1 <0>        -0.1039
     30 C26        -6.6679    4.8148    1.1995 C.ar      1 <0>        -0.0459
     31 C27        -6.5477    5.9002    2.0667 C.ar      1 <0>        -0.1113
     32 C28        -7.5037    6.8953    2.0587 C.ar      1 <0>        -0.1174
     33 C29        -8.5799    6.8174    1.1929 C.ar      1 <0>        -0.1195
     34 C30        -8.7045    5.7430    0.3302 C.ar      1 <0>        -0.1176
     35 C31        -7.7516    4.7450    0.3248 C.ar      1 <0>        -0.1117
     36 C32        -1.5871   -3.0959   -1.3017 C.3       1 <0>        -0.1752
     37 C33         0.5033   -2.8875   -2.6361 C.3       1 <0>        -0.1350
     38 H1          0.6613    1.7283   -0.8774 H         1 <0>         0.0672
     39 H2         -1.0226    1.5252   -1.4172 H         1 <0>         0.0667
     40 H3         -0.6684    1.8175    0.3025 H         1 <0>         0.0662
     41 H4         -0.6451   -0.4826   -2.3540 H         1 <0>         0.1151
     42 H5          0.6856   -3.8085   -0.1301 H         1 <0>         0.3501
     43 H6         -0.9728   -2.5479    1.1810 H         1 <0>         0.0519
     44 H7          1.1533   -0.4196    1.1787 H         1 <0>         0.0961
     45 H8          1.2505   -2.0984    4.2355 H         1 <0>         0.1398
     46 H9          1.5408   -3.4379    2.2160 H         1 <0>         0.1346
     47 H10        -2.9519    2.2913    5.5509 H         1 <0>         0.1462
     48 H11        -2.6566    1.1909    7.7259 H         1 <0>         0.1469
     49 H12        -0.1816   -4.1413    6.0904 H         1 <0>         0.1000
     50 H13        -1.6437   -3.2910    6.6449 H         1 <0>         0.0443
     51 H14        -1.2976   -3.4235    4.9040 H         1 <0>         0.0480
     52 H15        -1.9690   -1.6590    8.3471 H         1 <0>         0.3853
     53 H16        -2.7324   -0.0756    0.4446 H         1 <0>         0.1412
     54 H17        -2.7790    2.8884    2.7659 H         1 <0>         0.1486
     55 H18        -4.4702    4.6549    2.7560 H         1 <0>         0.1248
     56 H19        -6.6056    2.6056   -0.3476 H         1 <0>         0.1251
     57 H20        -4.9139    0.8395   -0.3525 H         1 <0>         0.1241
     58 H21        -5.7084    5.9618    2.7435 H         1 <0>         0.1252
     59 H22        -7.4117    7.7364    2.7298 H         1 <0>         0.1244
     60 H23        -9.3260    7.5982    1.1906 H         1 <0>         0.1228
     61 H24        -9.5470    5.6874   -0.3432 H         1 <0>         0.1242
     62 H25        -7.8473    3.9092   -0.3525 H         1 <0>         0.1249
     63 H26        -2.1639   -2.8265   -2.1865 H         1 <0>         0.0673
     64 H27        -1.4617   -4.1780   -1.2654 H         1 <0>         0.0591
     65 H28        -2.1143   -2.7610   -0.4084 H         1 <0>         0.0547
     66 H29         1.4822   -2.4113   -2.6913 H         1 <0>         0.0658
     67 H30         0.6267   -3.9702   -2.6120 H         1 <0>         0.0568
     68 H31        -0.0864   -2.6083   -3.5093 H         1 <0>         0.0621
@<TRIPOS>BOND
     1    1    2 1
     2    1   38 1
     3    1   39 1
     4    1   40 1
     5    2    7 1
     6    2    3 2
     7    3    4 1
     8    3   41 1
     9    4    5 1
    10    4   36 1
    11    4   37 1
    12    5    6 1
    13    5   42 1
    14    6   11 1
    15    6    7 1
    16    6   43 1
    17    7    8 1
    18    7   44 1
    19    8   22 1
    20    8    9 2
    21    9   10 1
    22    9   12 1
    23   10   11 2
    24   10   45 1
    25   11   46 1
    26   12   17 ar
    27   12   13 ar
    28   13   14 ar
    29   13   21 1
    30   14   15 ar
    31   14   47 1
    32   15   16 ar
    33   15   48 1
    34   16   17 ar
    35   16   20 1
    36   17   18 1
    37   18   19 1
    38   19   49 1
    39   19   50 1
    40   19   51 1
    41   20   52 1
    42   21   22 1
    43   22   23 2
    44   23   24 1
    45   23   53 1
    46   24   29 ar
    47   24   25 ar
    48   25   26 ar
    49   25   54 1
    50   26   27 ar
    51   26   55 1
    52   27   28 ar
    53   27   30 1
    54   28   29 ar
    55   28   56 1
    56   29   57 1
    57   30   35 ar
    58   30   31 ar
    59   31   32 ar
    60   31   58 1
    61   32   33 ar
    62   32   59 1
    63   33   34 ar
    64   33   60 1
    65   34   35 ar
    66   34   61 1
    67   35   62 1
    68   36   63 1
    69   36   64 1
    70   36   65 1
    71   37   66 1
    72   37   67 1
    73   37   68 1
@<TRIPOS>MOLECULE
CHEMBL437556__1
   69    74     0     0     0
SMALL
USER_CHARGES

@<TRIPOS>ATOM
      1 C1         -0.3162    1.3301   -0.6114 C.3       1 <0>        -0.1329
      2 C2         -0.2117   -0.1608   -0.3782 C.2       1 <0>        -0.0700
      3 C3         -0.3808   -0.9437   -1.4130 C.2       1 <0>        -0.1909
      4 C4         -0.2131   -2.4316   -1.3584 C.3       1 <0>         0.1013
      5 N1          0.6077   -2.8108   -0.1994 N.4       1 <0>        -0.4878
      6 C5          0.0515   -2.2341    1.0118 C.3       1 <0>         0.0531
      7 C6          0.0943   -0.6981    0.9671 C.3       1 <0>        -0.0102
      8 C7         -0.7024   -0.2320    2.1373 C.2       1 <0>        -0.0947
      9 C8         -0.3633   -0.8263    3.3516 C.2       1 <0>        -0.0168
     10 C9          0.6326   -1.9052    3.3583 C.2       1 <0>        -0.0359
     11 C10         0.8367   -2.6255    2.2448 C.2       1 <0>        -0.2117
     12 C11        -1.0154   -0.3220    4.5692 C.ar      1 <0>        -0.1336
     13 C12        -1.8010    0.8426    4.4752 C.ar      1 <0>         0.1325
     14 C13        -2.4035    1.3690    5.6032 C.ar      1 <0>        -0.1256
     15 C14        -2.2551    0.7415    6.8263 C.ar      1 <0>        -0.0756
     16 C15        -1.5041   -0.4183    6.9294 C.ar      1 <0>         0.0649
     17 C16        -0.8853   -0.9571    5.8050 C.ar      1 <0>         0.1267
     18 O1         -0.1755   -2.1087    5.9341 O.3       1 <0>        -0.3235
     19 C17        -0.9083   -3.3336    5.8656 C.3       1 <0>         0.0341
     20 O2         -1.3707   -1.0371    8.1345 O.3       1 <0>        -0.4785
     21 O3         -1.9840    1.4305    3.2630 O.3       1 <0>        -0.2195
     22 C18        -1.7865    0.6431    2.1684 C.2       1 <0>         0.0706
     23 C19        -2.7280    0.6738    1.1910 C.2       1 <0>        -0.0897
     24 C20        -3.7411    1.7339    1.1819 C.ar      1 <0>        -0.0732
     25 C21        -3.6297    2.8193    2.0620 C.ar      1 <0>        -0.0914
     26 C22        -4.5745    3.8053    2.0509 C.ar      1 <0>        -0.1169
     27 C23        -5.6506    3.7330    1.1643 C.ar      1 <0>        -0.0219
     28 C24        -5.7646    2.6530    0.2868 C.ar      1 <0>        -0.1163
     29 C25        -4.8198    1.6669    0.2892 C.ar      1 <0>        -0.0949
     30 C26        -6.6743    4.8047    1.1548 C.ar      1 <0>        -0.0594
     31 C27        -6.5617    5.8879    2.0257 C.ar      1 <0>        -0.1070
     32 C28        -7.5180    6.8826    2.0123 C.ar      1 <0>        -0.1172
     33 C29        -8.5870    6.8065    1.1375 C.ar      1 <0>        -0.1114
     34 C30        -8.7040    5.7343    0.2711 C.ar      1 <0>        -0.1175
     35 C31        -7.7508    4.7367    0.2709 C.ar      1 <0>        -0.1075
     36 C32        -1.5786   -3.1080   -1.2931 C.3       1 <0>        -0.1709
     37 C33         0.5047   -2.8889   -2.6340 C.3       1 <0>        -0.1737
     38 H1          0.6632    1.7252   -0.8811 H         1 <0>         0.0836
     39 H2         -1.0211    1.5228   -1.4201 H         1 <0>         0.0827
     40 H3         -0.6661    1.8165    0.2991 H         1 <0>         0.0806
     41 H4         -0.6590   -0.4930   -2.3513 H         1 <0>         0.1546
     42 H5          0.6317   -3.8201   -0.1228 H         1 <0>         0.4324
     43 H6         -0.9746   -2.5526    1.1640 H         1 <0>         0.1479
     44 H7          1.1520   -0.4233    1.1836 H         1 <0>         0.1193
     45 H8          1.2231   -2.1102    4.2385 H         1 <0>         0.1601
     46 H9          1.5259   -3.4479    2.2185 H         1 <0>         0.1558
     47 H10        -2.9896    2.2738    5.5325 H         1 <0>         0.1511
     48 H11        -2.7271    1.1573    7.7033 H         1 <0>         0.1532
     49 H12        -1.3396   -3.4438    4.8706 H         1 <0>         0.0452
     50 H13        -0.2381   -4.1696    6.0657 H         1 <0>         0.1036
     51 H14        -1.7061   -3.3217    6.6082 H         1 <0>         0.0506
     52 H15        -2.0533   -1.6977    8.3151 H         1 <0>         0.3900
     53 H16        -2.7309   -0.0825    0.4200 H         1 <0>         0.1386
     54 H17        -2.7978    2.8756    2.7483 H         1 <0>         0.1486
     55 H18        -4.4895    4.6416    2.7289 H         1 <0>         0.1286
     56 H19        -6.5984    2.5995   -0.3974 H         1 <0>         0.1287
     57 H20        -4.9061    0.8340   -0.3928 H         1 <0>         0.1240
     58 H21        -5.7280    5.9480    2.7096 H         1 <0>         0.1255
     59 H22        -7.4319    7.7221    2.6864 H         1 <0>         0.1270
     60 H23        -9.3334    7.5871    1.1311 H         1 <0>         0.1261
     61 H24        -9.5409    5.6802   -0.4094 H         1 <0>         0.1268
     62 H25        -7.8406    3.9025   -0.4092 H         1 <0>         0.1250
     63 H26        -2.1573   -2.8445   -2.1784 H         1 <0>         0.1104
     64 H27        -1.4470   -4.1893   -1.2536 H         1 <0>         0.0857
     65 H28        -2.1075   -2.7735   -0.4006 H         1 <0>         0.0784
     66 H29         1.4806   -2.4070   -2.6944 H         1 <0>         0.0839
     67 H30         0.6347   -3.9709   -2.6097 H         1 <0>         0.0850
     68 H31        -0.0908   -2.6139   -3.5045 H         1 <0>         0.1094
     69 H32         1.5538   -2.4756   -0.3372 H         1 <0>         0.4302
@<TRIPOS>BOND
     1    1    2 1
     2    1   38 1
     3    1   39 1
     4    1   40 1
     5    2    7 1
     6    2    3 2
     7    3    4 1
     8    3   41 1
     9    4    5 1
    10    4   36 1
    11    4   37 1
    12    5    6 1
    13    5   42 1
    14    5   69 1
    15    6   11 1
    16    6    7 1
    17    6   43 1
    18    7    8 1
    19    7   44 1
    20    8   22 1
    21    8    9 2
    22    9   10 1
    23    9   12 1
    24   10   11 2
    25   10   45 1
    26   11   46 1
    27   12   17 ar
    28   12   13 ar
    29   13   14 ar
    30   13   21 1
    31   14   15 ar
    32   14   47 1
    33   15   16 ar
    34   15   48 1
    35   16   17 ar
    36   16   20 1
    37   17   18 1
    38   18   19 1
    39   19   49 1
    40   19   50 1
    41   19   51 1
    42   20   52 1
    43   21   22 1
    44   22   23 2
    45   23   24 1
    46   23   53 1
    47   24   29 ar
    48   24   25 ar
    49   25   26 ar
    50   25   54 1
    51   26   27 ar
    52   26   55 1
    53   27   28 ar
    54   27   30 1
    55   28   29 ar
    56   28   56 1
    57   29   57 1
    58   30   35 ar
    59   30   31 ar
    60   31   32 ar
    61   31   58 1
    62   32   33 ar
    63   32   59 1
    64   33   34 ar
    65   33   60 1
    66   34   35 ar
    67   34   61 1
    68   35   62 1
    69   36   63 1
    70   36   64 1
    71   36   65 1
    72   37   66 1
    73   37   67 1
    74   37   68 1
@<TRIPOS>MOLECULE
CHEMBL437556__2
   68    73     0     0     0
SMALL
USER_CHARGES

@<TRIPOS>ATOM
      1 C1          1.4749    2.6829   -1.3120 C.3       1 <0>        -0.1281
      2 C2          1.5993    1.1946   -1.1110 C.2       1 <0>        -0.1064
      3 C3          1.6688    0.4322   -2.1597 C.2       1 <0>        -0.1780
      4 C4          1.8008   -1.0616   -2.0779 C.3       1 <0>         0.1391
      5 N1          1.3912   -1.5328   -0.7491 N.3       1 <0>        -0.6587
      6 C5          2.1001   -0.7881    0.3020 C.3       1 <0>         0.1175
      7 C6          1.6433    0.6633    0.2926 C.3       1 <0>        -0.0286
      8 C7          2.5511    1.5164    1.1347 C.2       1 <0>        -0.1133
      9 C8          3.8835    1.2182    1.2172 C.2       1 <0>         0.0072
     10 C9          4.4175    0.0435    0.5190 C.2       1 <0>        -0.1508
     11 C10         3.5825   -0.8913    0.0814 C.2       1 <0>        -0.1119
     12 C11         4.7509    2.0998    2.0195 C.ar      1 <0>        -0.1242
     13 C12         4.1697    3.1866    2.6909 C.ar      1 <0>         0.1302
     14 C13         4.9719    4.0265    3.4479 C.ar      1 <0>        -0.1278
     15 C14         6.3315    3.7937    3.5413 C.ar      1 <0>        -0.0865
     16 C15         6.9109    2.7201    2.8821 C.ar      1 <0>         0.0616
     17 C16         6.1238    1.8666    2.1183 C.ar      1 <0>         0.1254
     18 O1          6.6869    0.8122    1.4715 O.3       1 <0>        -0.3177
     19 C17         6.9024   -0.3768    2.2342 C.3       1 <0>         0.0305
     20 O2          8.2503    2.5024    2.9828 O.3       1 <0>        -0.4808
     21 O3          2.8385    3.4110    2.6035 O.3       1 <0>        -0.2118
     22 C18         2.0478    2.6260    1.8430 C.2       1 <0>         0.1224
     23 C19         0.7192    2.9155    1.7567 C.2       1 <0>        -0.1753
     24 C20         0.1956    4.1441    2.3623 C.ar      1 <0>        -0.0348
     25 C21         1.0693    5.1844    2.7078 C.ar      1 <0>        -0.1105
     26 C22         0.5786    6.3275    3.2713 C.ar      1 <0>        -0.1072
     27 C23        -0.7917    6.4606    3.5033 C.ar      1 <0>        -0.0528
     28 C24        -1.6644    5.4260    3.1607 C.ar      1 <0>        -0.1075
     29 C25        -1.1804    4.2829    2.5916 C.ar      1 <0>        -0.1119
     30 C26        -1.3209    7.7025    4.1149 C.ar      1 <0>        -0.0432
     31 C27        -0.4536    8.7405    4.4539 C.ar      1 <0>        -0.1129
     32 C28        -0.9523    9.8943    5.0231 C.ar      1 <0>        -0.1172
     33 C29        -2.3096   10.0223    5.2581 C.ar      1 <0>        -0.1210
     34 C30        -3.1749    8.9960    4.9240 C.ar      1 <0>        -0.1172
     35 C31        -2.6888    7.8398    4.3485 C.ar      1 <0>        -0.1130
     36 C32         0.9116   -1.7084   -3.1419 C.3       1 <0>        -0.1392
     37 C33         3.2573   -1.4567   -2.3296 C.3       1 <0>        -0.1480
     38 H1          2.4690    3.1274   -1.3601 H         1 <0>         0.0636
     39 H2          0.9430    2.8806   -2.2426 H         1 <0>         0.0625
     40 H3          0.9227    3.1172   -0.4786 H         1 <0>         0.0744
     41 H4          1.6303    0.8935   -3.1355 H         1 <0>         0.1120
     42 H5          0.3916   -1.4604   -0.6320 H         1 <0>         0.3474
     43 H6          1.8548   -1.2229    1.2710 H         1 <0>         0.0996
     44 H7          0.6412    0.7147    0.7183 H         1 <0>         0.0961
     45 H8          5.4818   -0.0599    0.3677 H         1 <0>         0.1542
     46 H9          3.9818   -1.7414   -0.4517 H         1 <0>         0.1423
     47 H10         4.5331    4.8662    3.9664 H         1 <0>         0.1476
     48 H11         6.9481    4.4544    4.1328 H         1 <0>         0.1486
     49 H12         7.3562   -1.1382    1.5998 H         1 <0>         0.1022
     50 H13         7.5669   -0.1570    3.0699 H         1 <0>         0.0474
     51 H14         5.9487   -0.7422    2.6149 H         1 <0>         0.0529
     52 H15         8.5014    1.9307    3.7212 H         1 <0>         0.3867
     53 H16         0.0517    2.2401    1.2421 H         1 <0>         0.1475
     54 H17         2.1294    5.0818    2.5289 H         1 <0>         0.1390
     55 H18         1.2513    7.1292    3.5380 H         1 <0>         0.1232
     56 H19        -2.7238    5.5316    3.3420 H         1 <0>         0.1242
     57 H20        -1.8564    3.4847    2.3227 H         1 <0>         0.1237
     58 H21         0.6062    8.6414    4.2716 H         1 <0>         0.1246
     59 H22        -0.2816   10.6990    5.2861 H         1 <0>         0.1239
     60 H23        -2.6952   10.9270    5.7045 H         1 <0>         0.1225
     61 H24        -4.2335    9.1014    5.1101 H         1 <0>         0.1239
     62 H25        -3.3659    7.0412    4.0836 H         1 <0>         0.1248
     63 H26         1.2218   -1.3688   -4.1301 H         1 <0>         0.0638
     64 H27         1.0060   -2.7927   -3.0841 H         1 <0>         0.0675
     65 H28        -0.1265   -1.4244   -2.9694 H         1 <0>         0.0553
     66 H29         3.9178   -0.7283   -1.8591 H         1 <0>         0.0703
     67 H30         3.4444   -2.4435   -1.9062 H         1 <0>         0.0719
     68 H31         3.4474   -1.4797   -3.4026 H         1 <0>         0.0587
@<TRIPOS>BOND
     1    1    2 1
     2    1   38 1
     3    1   39 1
     4    1   40 1
     5    2    7 1
     6    2    3 2
     7    3    4 1
     8    3   41 1
     9    4    5 1
    10    4   36 1
    11    4   37 1
    12    5    6 1
    13    5   42 1
    14    6   11 1
    15    6    7 1
    16    6   43 1
    17    7    8 1
    18    7   44 1
    19    8   22 1
    20    8    9 2
    21    9   10 1
    22    9   12 1
    23   10   11 2
    24   10   45 1
    25   11   46 1
    26   12   17 ar
    27   12   13 ar
    28   13   14 ar
    29   13   21 1
    30   14   15 ar
    31   14   47 1
    32   15   16 ar
    33   15   48 1
    34   16   17 ar
    35   16   20 1
    36   17   18 1
    37   18   19 1
    38   19   49 1
    39   19   50 1
    40   19   51 1
    41   20   52 1
    42   21   22 1
    43   22   23 2
    44   23   24 1
    45   23   53 1
    46   24   29 ar
    47   24   25 ar
    48   25   26 ar
    49   25   54 1
    50   26   27 ar
    51   26   55 1
    52   27   28 ar
    53   27   30 1
    54   28   29 ar
    55   28   56 1
    56   29   57 1
    57   30   35 ar
    58   30   31 ar
    59   31   32 ar
    60   31   58 1
    61   32   33 ar
    62   32   59 1
    63   33   34 ar
    64   33   60 1
    65   34   35 ar
    66   34   61 1
    67   35   62 1
    68   36   63 1
    69   36   64 1
    70   36   65 1
    71   37   66 1
    72   37   67 1
    73   37   68 1
@<TRIPOS>MOLECULE
CHEMBL437556__3
   69    74     0     0     0
SMALL
USER_CHARGES

@<TRIPOS>ATOM
      1 C1          1.1500    2.8804   -1.0506 C.3       1 <0>        -0.1376
      2 C2          1.1402    1.3759   -0.9635 C.2       1 <0>        -0.0780
      3 C3          1.1052    0.6890   -2.0656 C.2       1 <0>        -0.1815
      4 C4          1.0973   -0.8124   -2.0907 C.3       1 <0>         0.1027
      5 N1          0.6595   -1.3400   -0.7933 N.4       1 <0>        -0.4964
      6 C5          1.4842   -0.7520    0.2714 C.3       1 <0>         0.0775
      7 C6          1.1775    0.7334    0.3939 C.3       1 <0>        -0.0218
      8 C7          2.2001    1.4216    1.2557 C.2       1 <0>        -0.0993
      9 C8          3.4972    0.9876    1.2517 C.2       1 <0>        -0.0038
     10 C9          3.8808   -0.1729    0.4401 C.2       1 <0>        -0.0632
     11 C10         2.9382   -0.9824   -0.0278 C.2       1 <0>        -0.2158
     12 C11         4.4808    1.7109    2.0777 C.ar      1 <0>        -0.1369
     13 C12         4.0407    2.7923    2.8567 C.ar      1 <0>         0.1373
     14 C13         4.9536    3.4847    3.6372 C.ar      1 <0>        -0.1241
     15 C14         6.2847    3.1113    3.6492 C.ar      1 <0>        -0.0749
     16 C15         6.7248    2.0419    2.8839 C.ar      1 <0>         0.0690
     17 C16         5.8253    1.3354    2.0944 C.ar      1 <0>         0.1250
     18 O1          6.2518    0.2857    1.3436 O.3       1 <0>        -0.3214
     19 C17         6.3759   -0.9758    2.0033 C.3       1 <0>         0.0262
     20 O2          8.0375    1.6846    2.9054 O.3       1 <0>        -0.4785
     21 O3          2.7373    3.1543    2.8488 O.3       1 <0>        -0.2062
     22 C18         1.8407    2.5140    2.0703 C.2       1 <0>         0.1004
     23 C19         0.5456    2.9373    2.0716 C.2       1 <0>        -0.1450
     24 C20         0.1807    4.1789    2.7612 C.ar      1 <0>        -0.0598
     25 C21         1.1713    5.1108    3.1009 C.ar      1 <0>        -0.0986
     26 C22         0.8283    6.2663    3.7426 C.ar      1 <0>        -0.1121
     27 C23        -0.5073    6.5202    4.0604 C.ar      1 <0>        -0.0305
     28 C24        -1.4961    5.5938    3.7237 C.ar      1 <0>        -0.1124
     29 C25        -1.1601    4.4390    3.0768 C.ar      1 <0>        -0.1022
     30 C26        -0.8762    7.7753    4.7569 C.ar      1 <0>        -0.0563
     31 C27         0.1074    8.7058    5.0904 C.ar      1 <0>        -0.1086
     32 C28        -0.2421    9.8726    5.7389 C.ar      1 <0>        -0.1171
     33 C29        -1.5652   10.1199    6.0585 C.ar      1 <0>        -0.1132
     34 C30        -2.5454    9.2005    5.7302 C.ar      1 <0>        -0.1172
     35 C31        -2.2089    8.0330    5.0762 C.ar      1 <0>        -0.1088
     36 C32         0.1411   -1.2958   -3.1830 C.3       1 <0>        -0.1724
     37 C33         2.5077   -1.3215   -2.3950 C.3       1 <0>        -0.1836
     38 H1          2.1795    3.2345   -1.1038 H         1 <0>         0.0810
     39 H2          0.6105    3.1961   -1.9435 H         1 <0>         0.0790
     40 H3          0.6672    3.2986   -0.1674 H         1 <0>         0.0855
     41 H4          1.0811    1.2212   -3.0050 H         1 <0>         0.1531
     42 H5         -0.3086   -1.0998   -0.6411 H         1 <0>         0.4309
     43 H6          1.2371   -1.2346    1.2170 H         1 <0>         0.1519
     44 H7          0.2016    0.8501    0.8651 H         1 <0>         0.1261
     45 H8          4.9222   -0.3674    0.2302 H         1 <0>         0.1734
     46 H9          3.2271   -1.8214   -0.6435 H         1 <0>         0.1626
     47 H10         4.6237    4.3194    4.2379 H         1 <0>         0.1527
     48 H11         6.9882    3.6576    4.2599 H         1 <0>         0.1547
     49 H12         5.4060   -1.2749    2.4008 H         1 <0>         0.0501
     50 H13         6.7239   -1.7250    1.2922 H         1 <0>         0.1053
     51 H14         7.0924   -0.8897    2.8202 H         1 <0>         0.0545
     52 H15         8.2567    1.0331    3.5856 H         1 <0>         0.3914
     53 H16        -0.2122    2.3583    1.5647 H         1 <0>         0.1447
     54 H17         2.2046    4.9148    2.8557 H         1 <0>         0.1377
     55 H18         1.5911    6.9845    4.0050 H         1 <0>         0.1270
     56 H19        -2.5284    5.7925    3.9714 H         1 <0>         0.1278
     57 H20        -1.9260    3.7248    2.8126 H         1 <0>         0.1238
     58 H21         1.1407    8.5135    4.8419 H         1 <0>         0.1249
     59 H22         0.5188   10.5940    5.9977 H         1 <0>         0.1264
     60 H23        -1.8339   11.0342    6.5667 H         1 <0>         0.1256
     61 H24        -3.5766    9.3988    5.9827 H         1 <0>         0.1264
     62 H25        -2.9756    7.3182    4.8161 H         1 <0>         0.1250
     63 H26         0.4724   -0.9168   -4.1497 H         1 <0>         0.1081
     64 H27         0.1337   -2.3856   -3.2031 H         1 <0>         0.0844
     65 H28        -0.8640   -0.9295   -2.9741 H         1 <0>         0.0830
     66 H29         3.2396   -0.6761   -1.9094 H         1 <0>         0.1034
     67 H30         2.6153   -2.3393   -2.0199 H         1 <0>         0.0835
     68 H31         2.6729   -1.3120   -3.4723 H         1 <0>         0.1019
     69 H32         0.7638   -2.3435   -0.7850 H         1 <0>         0.4333
@<TRIPOS>BOND
     1    1    2 1
     2    1   38 1
     3    1   39 1
     4    1   40 1
     5    2    7 1
     6    2    3 2
     7    3    4 1
     8    3   41 1
     9    4    5 1
    10    4   36 1
    11    4   37 1
    12    5    6 1
    13    5   42 1
    14    5   69 1
    15    6   11 1
    16    6    7 1
    17    6   43 1
    18    7    8 1
    19    7   44 1
    20    8   22 1
    21    8    9 2
    22    9   10 1
    23    9   12 1
    24   10   11 2
    25   10   45 1
    26   11   46 1
    27   12   17 ar
    28   12   13 ar
    29   13   14 ar
    30   13   21 1
    31   14   15 ar
    32   14   47 1
    33   15   16 ar
    34   15   48 1
    35   16   17 ar
    36   16   20 1
    37   17   18 1
    38   18   19 1
    39   19   49 1
    40   19   50 1
    41   19   51 1
    42   20   52 1
    43   21   22 1
    44   22   23 2
    45   23   24 1
    46   23   53 1
    47   24   29 ar
    48   24   25 ar
    49   25   26 ar
    50   25   54 1
    51   26   27 ar
    52   26   55 1
    53   27   28 ar
    54   27   30 1
    55   28   29 ar
    56   28   56 1
    57   29   57 1
    58   30   35 ar
    59   30   31 ar
    60   31   32 ar
    61   31   58 1
    62   32   33 ar
    63   32   59 1
    64   33   34 ar
    65   33   60 1
    66   34   35 ar
    67   34   61 1
    68   35   62 1
    69   36   63 1
    70   36   64 1
    71   36   65 1
    72   37   66 1
    73   37   67 1
    74   37   68 1
@<TRIPOS>MOLECULE
CHEMBL437556__4
   68    73     0     0     0
SMALL
USER_CHARGES

@<TRIPOS>ATOM
      1 C1         -0.6954    1.3907   -0.0378 C.3       1 <0>        -0.1261
      2 C2         -0.3354   -0.0707   -0.1133 C.2       1 <0>        -0.1017
      3 C3         -0.3850   -0.6613   -1.2685 C.2       1 <0>        -0.1425
      4 C4         -0.0539   -2.1136   -1.4598 C.3       1 <0>         0.1417
      5 N1          0.7317   -2.6064   -0.3215 N.3       1 <0>        -0.6640
      6 C5          0.0593   -2.2844    0.9458 C.3       1 <0>         0.1177
      7 C6          0.0696   -0.7740    1.1499 C.3       1 <0>         0.0132
      8 C7         -0.8530   -0.3838    2.2713 C.2       1 <0>        -0.1086
      9 C8         -1.9929   -1.1049    2.4980 C.2       1 <0>         0.0003
     10 C9         -2.2931   -2.2818    1.6749 C.2       1 <0>        -0.1391
     11 C10        -1.3406   -2.8294    0.9270 C.2       1 <0>        -0.1620
     12 C11        -2.8944   -0.6696    3.5800 C.ar      1 <0>        -0.1260
     13 C12        -2.5301    0.4438    4.3530 C.ar      1 <0>         0.1294
     14 C13        -3.3681    0.8676    5.3729 C.ar      1 <0>        -0.1269
     15 C14        -4.5502    0.1973    5.6273 C.ar      1 <0>        -0.0884
     16 C15        -4.9141   -0.9049    4.8686 C.ar      1 <0>         0.0670
     17 C16        -4.0878   -1.3451    3.8414 C.ar      1 <0>         0.1230
     18 O1         -4.4396   -2.4258    3.0961 O.3       1 <0>        -0.3236
     19 C17        -3.9972   -3.7039    3.5574 C.3       1 <0>         0.0326
     20 O2         -6.0799   -1.5559    5.1301 O.3       1 <0>        -0.4865
     21 O3         -1.3708    1.0963    4.1072 O.3       1 <0>        -0.2122
     22 C18        -0.5604    0.7209    3.0963 C.2       1 <0>         0.1159
     23 C19         0.5780    1.4329    2.8651 C.2       1 <0>        -0.1669
     24 C20         0.9954    2.4749    3.8086 C.ar      1 <0>        -0.0360
     25 C21         0.4355    2.5248    5.0927 C.ar      1 <0>        -0.1104
     26 C22         0.8266    3.4961    5.9693 C.ar      1 <0>        -0.1078
     27 C23         1.7831    4.4389    5.5878 C.ar      1 <0>        -0.0526
     28 C24         2.3423    4.3921    4.3093 C.ar      1 <0>        -0.1079
     29 C25         1.9595    3.4196    3.4303 C.ar      1 <0>        -0.1103
     30 C26         2.2053    5.4917    6.5415 C.ar      1 <0>        -0.0430
     31 C27         1.6534    5.5391    7.8212 C.ar      1 <0>        -0.1130
     32 C28         2.0504    6.5218    8.7049 C.ar      1 <0>        -0.1173
     33 C29         2.9938    7.4590    8.3232 C.ar      1 <0>        -0.1212
     34 C30         3.5449    7.4170    7.0550 C.ar      1 <0>        -0.1172
     35 C31         3.1604    6.4354    6.1647 C.ar      1 <0>        -0.1129
     36 C32        -1.3499   -2.9194   -1.5686 C.3       1 <0>        -0.1864
     37 C33         0.7558   -2.2841   -2.7468 C.3       1 <0>        -0.1347
     38 H1          0.1990    1.9938   -0.1946 H         1 <0>         0.0698
     39 H2         -1.4306    1.6241   -0.8079 H         1 <0>         0.0620
     40 H3         -1.1148    1.6114    0.9438 H         1 <0>         0.0660
     41 H4         -0.6782   -0.0817   -2.1313 H         1 <0>         0.1136
     42 H5          0.8992   -3.5983   -0.4001 H         1 <0>         0.3489
     43 H6          0.6087   -2.7466    1.7658 H         1 <0>         0.0971
     44 H7          1.0784   -0.4600    1.4178 H         1 <0>         0.1041
     45 H8         -3.2880   -2.7019    1.6718 H         1 <0>         0.1504
     46 H9         -1.5704   -3.6804    0.3031 H         1 <0>         0.1361
     47 H10        -3.0962    1.7245    5.9713 H         1 <0>         0.1475
     48 H11        -5.1963    0.5354    6.4239 H         1 <0>         0.1486
     49 H12        -4.3453   -4.4776    2.8731 H         1 <0>         0.0990
     50 H13        -2.9080   -3.7183    3.5983 H         1 <0>         0.0516
     51 H14        -4.4006   -3.8906    4.5526 H         1 <0>         0.0549
     52 H15        -6.8398   -1.2144    4.6391 H         1 <0>         0.3938
     53 H16         1.1730    1.2298    1.9869 H         1 <0>         0.1501
     54 H17        -0.3047    1.7960    5.3883 H         1 <0>         0.1396
     55 H18         0.3953    3.5353    6.9587 H         1 <0>         0.1230
     56 H19         3.0815    5.1231    4.0167 H         1 <0>         0.1243
     57 H20         2.3957    3.3812    2.4430 H         1 <0>         0.1246
     58 H21         0.9163    4.8084    8.1200 H         1 <0>         0.1246
     59 H22         1.6236    6.5595    9.6962 H         1 <0>         0.1237
     60 H23         3.3009    8.2266    9.0180 H         1 <0>         0.1223
     61 H24         4.2807    8.1515    6.7626 H         1 <0>         0.1239
     62 H25         3.5948    6.4007    5.1766 H         1 <0>         0.1250
     63 H26        -1.7333   -2.8553   -2.5869 H         1 <0>         0.0614
     64 H27        -1.1515   -3.9620   -1.3200 H         1 <0>         0.0594
     65 H28        -2.0883   -2.5151   -0.8762 H         1 <0>         0.0753
     66 H29         1.6775   -1.7067   -2.6754 H         1 <0>         0.0652
     67 H30         0.9971   -3.3377   -2.8874 H         1 <0>         0.0569
     68 H31         0.1696   -1.9294   -3.5945 H         1 <0>         0.0615
@<TRIPOS>BOND
     1    1    2 1
     2    1   38 1
     3    1   39 1
     4    1   40 1
     5    2    7 1
     6    2    3 2
     7    3    4 1
     8    3   41 1
     9    4    5 1
    10    4   36 1
    11    4   37 1
    12    5    6 1
    13    5   42 1
    14    6   11 1
    15    6    7 1
    16    6   43 1
    17    7    8 1
    18    7   44 1
    19    8   22 1
    20    8    9 2
    21    9   10 1
    22    9   12 1
    23   10   11 2
    24   10   45 1
    25   11   46 1
    26   12   17 ar
    27   12   13 ar
    28   13   14 ar
    29   13   21 1
    30   14   15 ar
    31   14   47 1
    32   15   16 ar
    33   15   48 1
    34   16   17 ar
    35   16   20 1
    36   17   18 1
    37   18   19 1
    38   19   49 1
    39   19   50 1
    40   19   51 1
    41   20   52 1
    42   21   22 1
    43   22   23 2
    44   23   24 1
    45   23   53 1
    46   24   29 ar
    47   24   25 ar
    48   25   26 ar
    49   25   54 1
    50   26   27 ar
    51   26   55 1
    52   27   28 ar
    53   27   30 1
    54   28   29 ar
    55   28   56 1
    56   29   57 1
    57   30   35 ar
    58   30   31 ar
    59   31   32 ar
    60   31   58 1
    61   32   33 ar
    62   32   59 1
    63   33   34 ar
    64   33   60 1
    65   34   35 ar
    66   34   61 1
    67   35   62 1
    68   36   63 1
    69   36   64 1
    70   36   65 1
    71   37   66 1
    72   37   67 1
    73   37   68 1
@<TRIPOS>MOLECULE
CHEMBL437556__5
   69    74     0     0     0
SMALL
USER_CHARGES

@<TRIPOS>ATOM
      1 C1         -0.9280    1.1981    0.0932 C.3       1 <0>        -0.1359
      2 C2         -0.4518   -0.2055   -0.1794 C.2       1 <0>        -0.0803
      3 C3         -0.5588   -0.6758   -1.3857 C.2       1 <0>        -0.1799
      4 C4         -0.1188   -2.0610   -1.7629 C.3       1 <0>         0.1027
      5 N1          0.8322   -2.5793   -0.7727 N.4       1 <0>        -0.4971
      6 C5          0.2417   -2.4708    0.5685 C.3       1 <0>         0.0766
      7 C6          0.1322   -1.0000    0.9539 C.3       1 <0>        -0.0226
      8 C7         -0.7190   -0.8365    2.1829 C.2       1 <0>        -0.0987
      9 C8         -1.7636   -1.6908    2.4065 C.2       1 <0>        -0.0029
     10 C9         -2.0270   -2.7895    1.4704 C.2       1 <0>        -0.0664
     11 C10        -1.0987   -3.1489    0.5887 C.2       1 <0>        -0.2154
     12 C11        -2.6013   -1.4763    3.6002 C.ar      1 <0>        -0.1387
     13 C12        -2.2741   -0.4268    4.4728 C.ar      1 <0>         0.1322
     14 C13        -3.0535   -0.2101    5.5987 C.ar      1 <0>        -0.1237
     15 C14        -4.1417   -1.0220    5.8598 C.ar      1 <0>        -0.0766
     16 C15        -4.4680   -2.0622    5.0028 C.ar      1 <0>         0.0751
     17 C16        -3.6993   -2.2958    3.8688 C.ar      1 <0>         0.1241
     18 O1         -4.0145   -3.3150    3.0267 O.3       1 <0>        -0.3259
     19 C17        -3.4165   -4.5852    3.2931 C.3       1 <0>         0.0279
     20 O2         -5.5411   -2.8542    5.2722 O.3       1 <0>        -0.4843
     21 O3         -1.2066    0.3645    4.2197 O.3       1 <0>        -0.2035
     22 C18        -0.4567    0.1901    3.1120 C.2       1 <0>         0.0951
     23 C19         0.5884    1.0341    2.8839 C.2       1 <0>        -0.1417
     24 C20         0.9877    2.0010    3.9116 C.ar      1 <0>        -0.0604
     25 C21         0.4203    1.9397    5.1919 C.ar      1 <0>        -0.1053
     26 C22         0.7944    2.8412    6.1469 C.ar      1 <0>        -0.1124
     27 C23         1.7411    3.8233    5.8492 C.ar      1 <0>        -0.0309
     28 C24         2.3077    3.8872    4.5747 C.ar      1 <0>        -0.1125
     29 C25         1.9418    2.9849    3.6173 C.ar      1 <0>        -0.1024
     30 C26         2.1450    4.8002    6.8879 C.ar      1 <0>        -0.0563
     31 C27         1.5856    4.7369    8.1637 C.ar      1 <0>        -0.1087
     32 C28         1.9656    5.6493    9.1266 C.ar      1 <0>        -0.1171
     33 C29         2.8991    6.6257    8.8283 C.ar      1 <0>        -0.1132
     34 C30         3.4576    6.6935    7.5644 C.ar      1 <0>        -0.1172
     35 C31         3.0901    5.7828    6.5950 C.ar      1 <0>        -0.1088
     36 C32        -1.3394   -2.9815   -1.8233 C.3       1 <0>        -0.1817
     37 C33         0.5516   -2.0230   -3.1377 C.3       1 <0>        -0.1726
     38 H1         -0.1083    1.8978   -0.0694 H         1 <0>         0.0855
     39 H2         -1.7508    1.4396   -0.5797 H         1 <0>         0.0786
     40 H3         -1.2694    1.2719    1.1257 H         1 <0>         0.0798
     41 H4         -0.9832   -0.0426   -2.1508 H         1 <0>         0.1532
     42 H5          1.0348   -3.5470   -0.9744 H         1 <0>         0.4332
     43 H6          0.8985   -2.9644    1.2847 H         1 <0>         0.1514
     44 H7          1.1278   -0.6160    1.1762 H         1 <0>         0.1276
     45 H8         -2.9761   -3.3044    1.4919 H         1 <0>         0.1726
     46 H9         -1.3038   -3.9408   -0.1164 H         1 <0>         0.1649
     47 H10        -2.8098    0.5964    6.2744 H         1 <0>         0.1523
     48 H11        -4.7428   -0.8447    6.7393 H         1 <0>         0.1549
     49 H12        -3.7109   -4.9243    4.2863 H         1 <0>         0.0619
     50 H13        -3.7511   -5.3076    2.5486 H         1 <0>         0.1036
     51 H14        -2.3314   -4.4927    3.2476 H         1 <0>         0.0479
     52 H15        -6.3697   -2.5385    4.8863 H         1 <0>         0.3991
     53 H16         1.1227    0.9909    1.9464 H         1 <0>         0.1445
     54 H17        -0.3123    1.1804    5.4227 H         1 <0>         0.1469
     55 H18         0.3574    2.7947    7.1334 H         1 <0>         0.1270
     56 H19         3.0392    4.6485    4.3472 H         1 <0>         0.1278
     57 H20         2.3837    3.0321    2.6329 H         1 <0>         0.1237
     58 H21         0.8562    3.9755    8.3975 H         1 <0>         0.1249
     59 H22         1.5330    5.6012   10.1151 H         1 <0>         0.1264
     60 H23         3.1929    7.3380    9.5851 H         1 <0>         0.1256
     61 H24         4.1856    7.4582    7.3372 H         1 <0>         0.1264
     62 H25         3.5303    5.8338    5.6101 H         1 <0>         0.1249
     63 H26        -1.8050   -2.9036   -2.8058 H         1 <0>         0.1017
     64 H27        -1.0269   -4.0113   -1.6501 H         1 <0>         0.0838
     65 H28        -2.0560   -2.6855   -1.0572 H         1 <0>         0.1024
     66 H29         1.4180   -1.3626   -3.1013 H         1 <0>         0.0829
     67 H30         0.8719   -3.0277   -3.4137 H         1 <0>         0.0846
     68 H31        -0.1575   -1.6516   -3.8775 H         1 <0>         0.1082
     69 H32         1.6847   -2.0409   -0.8102 H         1 <0>         0.4307
@<TRIPOS>BOND
     1    1    2 1
     2    1   38 1
     3    1   39 1
     4    1   40 1
     5    2    7 1
     6    2    3 2
     7    3    4 1
     8    3   41 1
     9    4    5 1
    10    4   36 1
    11    4   37 1
    12    5    6 1
    13    5   42 1
    14    5   69 1
    15    6   11 1
    16    6    7 1
    17    6   43 1
    18    7    8 1
    19    7   44 1
    20    8   22 1
    21    8    9 2
    22    9   10 1
    23    9   12 1
    24   10   11 2
    25   10   45 1
    26   11   46 1
    27   12   17 ar
    28   12   13 ar
    29   13   14 ar
    30   13   21 1
    31   14   15 ar
    32   14   47 1
    33   15   16 ar
    34   15   48 1
    35   16   17 ar
    36   16   20 1
    37   17   18 1
    38   18   19 1
    39   19   49 1
    40   19   50 1
    41   19   51 1
    42   20   52 1
    43   21   22 1
    44   22   23 2
    45   23   24 1
    46   23   53 1
    47   24   29 ar
    48   24   25 ar
    49   25   26 ar
    50   25   54 1
    51   26   27 ar
    52   26   55 1
    53   27   28 ar
    54   27   30 1
    55   28   29 ar
    56   28   56 1
    57   29   57 1
    58   30   35 ar
    59   30   31 ar
    60   31   32 ar
    61   31   58 1
    62   32   33 ar
    63   32   59 1
    64   33   34 ar
    65   33   60 1
    66   34   35 ar
    67   34   61 1
    68   35   62 1
    69   36   63 1
    70   36   64 1
    71   36   65 1
    72   37   66 1
    73   37   67 1
    74   37   68 1
@<TRIPOS>MOLECULE
CHEMBL437556__6
   68    73     0     0     0
SMALL
USER_CHARGES

@<TRIPOS>ATOM
      1 C1          0.3134    1.3964   -0.6343 C.3       1 <0>        -0.1223
      2 C2          0.2434   -0.0979   -0.4105 C.2       1 <0>        -0.1003
      3 C3          0.4123   -0.8666   -1.4555 C.2       1 <0>        -0.1817
      4 C4          0.2859   -2.3600   -1.4111 C.3       1 <0>         0.1430
      5 N1         -0.5039   -2.7629   -0.2372 N.3       1 <0>        -0.6607
      6 C5          0.0398   -2.1814    0.9780 C.3       1 <0>         0.1209
      7 C6         -0.0334   -0.6467    0.9355 C.3       1 <0>        -0.0333
      8 C7          0.7561   -0.1669    2.1040 C.2       1 <0>        -0.0959
      9 C8          0.4320   -0.7690    3.3187 C.2       1 <0>        -0.0177
     10 C9         -0.5396   -1.8695    3.3259 C.2       1 <0>        -0.1194
     11 C10        -0.7337   -2.5911    2.2108 C.2       1 <0>        -0.1229
     12 C11         1.0740   -0.2497    4.5360 C.ar      1 <0>        -0.1190
     13 C12         1.8411    0.9271    4.4392 C.ar      1 <0>         0.1239
     14 C13         2.4370    1.4649    5.5652 C.ar      1 <0>        -0.1286
     15 C14         2.2953    0.8411    6.7911 C.ar      1 <0>        -0.0904
     16 C15         1.5602   -0.3283    6.8978 C.ar      1 <0>         0.0633
     17 C16         0.9521   -0.8812    5.7744 C.ar      1 <0>         0.1238
     18 O1          0.2611   -2.0437    5.9080 O.3       1 <0>        -0.3259
     19 C17         0.9956   -3.2580    5.7405 C.3       1 <0>         0.0400
     20 O2          1.4309   -0.9421    8.1059 O.3       1 <0>        -0.4871
     21 O3          2.0110    1.5183    3.2267 O.3       1 <0>        -0.2266
     22 C18         1.8241    0.7292    2.1323 C.2       1 <0>         0.0977
     23 C19         2.7593    0.7787    1.1496 C.2       1 <0>        -0.1211
     24 C20         3.7508    1.8590    1.1348 C.ar      1 <0>        -0.0491
     25 C21         4.8194    1.8192    0.2284 C.ar      1 <0>        -0.1042
     26 C22         5.7408    2.8269    0.2167 C.ar      1 <0>        -0.1114
     27 C23         5.6194    3.8963    1.1061 C.ar      1 <0>        -0.0442
     28 C24         4.5564    3.9386    2.0104 C.ar      1 <0>        -0.1120
     29 C25         3.6286    2.9366    2.0230 C.ar      1 <0>        -0.1025
     30 C26         6.6212    4.9884    1.0908 C.ar      1 <0>        -0.0459
     31 C27         7.6815    4.9529    0.1859 C.ar      1 <0>        -0.1116
     32 C28         8.6111    5.9726    0.1763 C.ar      1 <0>        -0.1175
     33 C29         8.4929    7.0284    1.0625 C.ar      1 <0>        -0.1194
     34 C30         7.4431    7.0691    1.9625 C.ar      1 <0>        -0.1174
     35 C31         6.5038    6.0583    1.9773 C.ar      1 <0>        -0.1114
     36 C32         1.6712   -2.9971   -1.3672 C.3       1 <0>        -0.1335
     37 C33        -0.4385   -2.8307   -2.6767 C.3       1 <0>        -0.1401
     38 H1          1.3380    1.7381   -0.4878 H         1 <0>         0.0755
     39 H2         -0.0045    1.6267   -1.6511 H         1 <0>         0.0640
     40 H3         -0.3428    1.9011    0.0747 H         1 <0>         0.0608
     41 H4          0.6543   -0.4007   -2.3959 H         1 <0>         0.1135
     42 H5         -1.4785   -2.5319   -0.3603 H         1 <0>         0.3481
     43 H6          1.0738   -2.4795    1.1248 H         1 <0>         0.0947
     44 H7         -1.0957   -0.3961    1.1614 H         1 <0>         0.0880
     45 H8         -1.1196   -2.0932    4.2087 H         1 <0>         0.1393
     46 H9         -1.4088   -3.4255    2.1851 H         1 <0>         0.1376
     47 H10         3.0149    2.3746    5.4903 H         1 <0>         0.1454
     48 H11         2.7599    1.2675    7.6670 H         1 <0>         0.1468
     49 H12         0.3268   -4.1084    5.8727 H         1 <0>         0.0981
     50 H13         1.4265   -3.2868    4.7397 H         1 <0>         0.0467
     51 H14         1.7938   -3.3049    6.4812 H         1 <0>         0.0523
     52 H15         0.6651   -0.6467    8.6172 H         1 <0>         0.3930
     53 H16         2.7732    0.0224    0.3787 H         1 <0>         0.1415
     54 H17         4.9141    0.9921   -0.4596 H         1 <0>         0.1245
     55 H18         6.5646    2.7966   -0.4811 H         1 <0>         0.1253
     56 H19         4.4655    4.7667    2.6977 H         1 <0>         0.1247
     57 H20         2.8041    2.9721    2.7196 H         1 <0>         0.1487
     58 H21         7.7752    4.1288   -0.5059 H         1 <0>         0.1250
     59 H22         9.4328    5.9463   -0.5240 H         1 <0>         0.1243
     60 H23         9.2234    7.8239    1.0518 H         1 <0>         0.1229
     61 H24         7.3562    7.8957    2.6522 H         1 <0>         0.1243
     62 H25         5.6820    6.0936    2.6772 H         1 <0>         0.1251
     63 H26         2.2007   -2.6545   -0.4781 H         1 <0>         0.0523
     64 H27         1.5713   -4.0821   -1.3350 H         1 <0>         0.0672
     65 H28         2.2316   -2.7101   -2.2570 H         1 <0>         0.0628
     66 H29         0.1347   -2.5340   -3.5551 H         1 <0>         0.0646
     67 H30        -0.5369   -3.9161   -2.6566 H         1 <0>         0.0678
     68 H31        -1.4286   -2.3768   -2.7187 H         1 <0>         0.0557
@<TRIPOS>BOND
     1    1    2 1
     2    1   38 1
     3    1   39 1
     4    1   40 1
     5    2    7 1
     6    2    3 2
     7    3    4 1
     8    3   41 1
     9    4    5 1
    10    4   36 1
    11    4   37 1
    12    5    6 1
    13    5   42 1
    14    6   11 1
    15    6    7 1
    16    6   43 1
    17    7    8 1
    18    7   44 1
    19    8   22 1
    20    8    9 2
    21    9   10 1
    22    9   12 1
    23   10   11 2
    24   10   45 1
    25   11   46 1
    26   12   17 ar
    27   12   13 ar
    28   13   14 ar
    29   13   21 1
    30   14   15 ar
    31   14   47 1
    32   15   16 ar
    33   15   48 1
    34   16   17 ar
    35   16   20 1
    36   17   18 1
    37   18   19 1
    38   19   49 1
    39   19   50 1
    40   19   51 1
    41   20   52 1
    42   21   22 1
    43   22   23 2
    44   23   24 1
    45   23   53 1
    46   24   29 ar
    47   24   25 ar
    48   25   26 ar
    49   25   54 1
    50   26   27 ar
    51   26   55 1
    52   27   28 ar
    53   27   30 1
    54   28   29 ar
    55   28   56 1
    56   29   57 1
    57   30   35 ar
    58   30   31 ar
    59   31   32 ar
    60   31   58 1
    61   32   33 ar
    62   32   59 1
    63   33   34 ar
    64   33   60 1
    65   34   35 ar
    66   34   61 1
    67   35   62 1
    68   36   63 1
    69   36   64 1
    70   36   65 1
    71   37   66 1
    72   37   67 1
    73   37   68 1
@<TRIPOS>MOLECULE
CHEMBL437556__7
   69    74     0     0     0
SMALL
USER_CHARGES

@<TRIPOS>ATOM
      1 C1          0.3136    1.4041   -0.6329 C.3       1 <0>        -0.1326
      2 C2          0.2418   -0.0905   -0.4126 C.2       1 <0>        -0.0702
      3 C3          0.4123   -0.8596   -1.4573 C.2       1 <0>        -0.1906
      4 C4          0.2794   -2.3517   -1.4134 C.3       1 <0>         0.1011
      5 N1         -0.5230   -2.7577   -0.2506 N.4       1 <0>        -0.4876
      6 C5          0.0361   -2.1810    0.9597 C.3       1 <0>         0.0525
      7 C6         -0.0370   -0.6461    0.9317 C.3       1 <0>        -0.0095
      8 C7          0.7641   -0.1764    2.0974 C.2       1 <0>        -0.0933
      9 C8          0.4585   -0.7941    3.3091 C.2       1 <0>        -0.0184
     10 C9         -0.5134   -1.8947    3.3187 C.2       1 <0>        -0.0368
     11 C10        -0.7223   -2.6029    2.1985 C.2       1 <0>        -0.2115
     12 C11         1.1189   -0.2911    4.5231 C.ar      1 <0>        -0.1353
     13 C12         1.8694    0.8971    4.4345 C.ar      1 <0>         0.1306
     14 C13         2.4786    1.4218    5.5590 C.ar      1 <0>        -0.1252
     15 C14         2.3698    0.7713    6.7746 C.ar      1 <0>        -0.0776
     16 C15         1.6540   -0.4107    6.8721 C.ar      1 <0>         0.0695
     17 C16         1.0309   -0.9498    5.7501 C.ar      1 <0>         0.1262
     18 O1          0.3607   -2.1256    5.8719 O.3       1 <0>        -0.3283
     19 C17         1.1105   -3.3242    5.6648 C.3       1 <0>         0.0374
     20 O2          1.5578   -1.0505    8.0698 O.3       1 <0>        -0.4853
     21 O3          2.0096    1.5096    3.2283 O.3       1 <0>        -0.2202
     22 C18         1.8247    0.7275    2.1273 C.2       1 <0>         0.0722
     23 C19         2.7571    0.7928    1.1432 C.2       1 <0>        -0.0917
     24 C20         3.7385    1.8823    1.1341 C.ar      1 <0>        -0.0746
     25 C21         4.8057    1.8587    0.2255 C.ar      1 <0>        -0.0950
     26 C22         5.7178    2.8750    0.2191 C.ar      1 <0>        -0.1163
     27 C23         5.5882    3.9369    1.1163 C.ar      1 <0>        -0.0216
     28 C24         4.5266    3.9630    2.0228 C.ar      1 <0>        -0.1171
     29 C25         3.6081    2.9524    2.0301 C.ar      1 <0>        -0.0910
     30 C26         6.5798    5.0383    1.1068 C.ar      1 <0>        -0.0595
     31 C27         7.6387    5.0190    0.1996 C.ar      1 <0>        -0.1074
     32 C28         8.5588    6.0473    0.1955 C.ar      1 <0>        -0.1175
     33 C29         8.4326    7.0957    1.0893 C.ar      1 <0>        -0.1113
     34 C30         7.3842    7.1203    1.9916 C.ar      1 <0>        -0.1173
     35 C31         6.4543    6.1008    2.0011 C.ar      1 <0>        -0.1069
     36 C32         1.6609   -2.9963   -1.3635 C.3       1 <0>        -0.1713
     37 C33        -0.4369   -2.8169   -2.6868 C.3       1 <0>        -0.1735
     38 H1          1.3385    1.7444   -0.4846 H         1 <0>         0.0914
     39 H2         -0.0031    1.6371   -1.6495 H         1 <0>         0.0803
     40 H3         -0.3428    1.9079    0.0767 H         1 <0>         0.0759
     41 H4          0.6607   -0.3943   -2.3964 H         1 <0>         0.1547
     42 H5         -1.4762   -2.4380   -0.3764 H         1 <0>         0.4302
     43 H6          1.0708   -2.4799    1.0951 H         1 <0>         0.1479
     44 H7         -1.0968   -0.3937    1.1633 H         1 <0>         0.1194
     45 H8         -1.0801   -2.1280    4.2078 H         1 <0>         0.1599
     46 H9         -1.3986   -3.4362    2.1712 H         1 <0>         0.1558
     47 H10         3.0413    2.3415    5.4920 H         1 <0>         0.1506
     48 H11         2.8455    1.1869    7.6501 H         1 <0>         0.1530
     49 H12         1.9234   -3.3741    6.3892 H         1 <0>         0.0587
     50 H13         0.4575   -4.1878    5.7914 H         1 <0>         0.1012
     51 H14         1.5226   -3.3252    4.6557 H         1 <0>         0.0420
     52 H15         0.7982   -0.7769    8.6020 H         1 <0>         0.3984
     53 H16         2.7762    0.0423    0.3668 H         1 <0>         0.1387
     54 H17         4.9066    1.0374   -0.4686 H         1 <0>         0.1242
     55 H18         6.5404    2.8572   -0.4805 H         1 <0>         0.1289
     56 H19         4.4294    4.7853    2.7161 H         1 <0>         0.1287
     57 H20         2.7847    2.9754    2.7285 H         1 <0>         0.1492
     58 H21         7.7386    4.2007   -0.4981 H         1 <0>         0.1251
     59 H22         9.3793    6.0334   -0.5066 H         1 <0>         0.1268
     60 H23         9.1556    7.8979    1.0828 H         1 <0>         0.1261
     61 H24         7.2910    7.9412    2.6872 H         1 <0>         0.1270
     62 H25         5.6336    6.1235    2.7027 H         1 <0>         0.1254
     63 H26         2.1884   -2.6565   -0.4722 H         1 <0>         0.0783
     64 H27         1.5549   -4.0806   -1.3318 H         1 <0>         0.0858
     65 H28         2.2265   -2.7122   -2.2509 H         1 <0>         0.1105
     66 H29         0.1455   -2.5218   -3.5596 H         1 <0>         0.1094
     67 H30        -0.5411   -3.9018   -2.6693 H         1 <0>         0.0850
     68 H31        -1.4242   -2.3578   -2.7366 H         1 <0>         0.0839
     69 H32        -0.5282   -3.7678   -0.1832 H         1 <0>         0.4326
@<TRIPOS>BOND
     1    1    2 1
     2    1   38 1
     3    1   39 1
     4    1   40 1
     5    2    7 1
     6    2    3 2
     7    3    4 1
     8    3   41 1
     9    4    5 1
    10    4   36 1
    11    4   37 1
    12    5    6 1
    13    5   42 1
    14    5   69 1
    15    6   11 1
    16    6    7 1
    17    6   43 1
    18    7    8 1
    19    7   44 1
    20    8   22 1
    21    8    9 2
    22    9   10 1
    23    9   12 1
    24   10   11 2
    25   10   45 1
    26   11   46 1
    27   12   17 ar
    28   12   13 ar
    29   13   14 ar
    30   13   21 1
    31   14   15 ar
    32   14   47 1
    33   15   16 ar
    34   15   48 1
    35   16   17 ar
    36   16   20 1
    37   17   18 1
    38   18   19 1
    39   19   49 1
    40   19   50 1
    41   19   51 1
    42   20   52 1
    43   21   22 1
    44   22   23 2
    45   23   24 1
    46   23   53 1
    47   24   29 ar
    48   24   25 ar
    49   25   26 ar
    50   25   54 1
    51   26   27 ar
    52   26   55 1
    53   27   28 ar
    54   27   30 1
    55   28   29 ar
    56   28   56 1
    57   29   57 1
    58   30   35 ar
    59   30   31 ar
    60   31   32 ar
    61   31   58 1
    62   32   33 ar
    63   32   59 1
    64   33   34 ar
    65   33   60 1
    66   34   35 ar
    67   34   61 1
    68   35   62 1
    69   36   63 1
    70   36   64 1
    71   36   65 1
    72   37   66 1
    73   37   67 1
    74   37   68 1
@<TRIPOS>MOLECULE
CHEMBL182842
   62    65     0     0     0
SMALL
USER_CHARGES

@<TRIPOS>ATOM
      1 C1          0.2993    1.5845    0.2244 C.3       1 <0>        -0.0763
      2 C2          0.6132    0.1184    0.3763 C.ar      1 <0>        -0.1497
      3 C3          1.0256   -0.6221   -0.7228 C.ar      1 <0>         0.2863
      4 C4          1.3142   -1.9737   -0.5793 C.ar      1 <0>        -0.2568
      5 C5          1.1911   -2.5807    0.6559 C.ar      1 <0>        -0.0727
      6 C6          0.7805   -1.8467    1.7517 C.ar      1 <0>        -0.2198
      7 C7          0.4961   -0.4929    1.6164 C.ar      1 <0>         0.1875
      8 N1          0.0875    0.2500    2.7262 N.pl3     1 <0>        -0.6497
      9 C8          1.0830    0.9246    3.5630 C.3       1 <0>         0.1867
     10 C9          1.3224    2.3160    3.0359 C.ar      1 <0>        -0.0980
     11 C10         2.3026    2.5361    2.0863 C.ar      1 <0>        -0.0808
     12 C11         2.5222    3.8124    1.6028 C.ar      1 <0>        -0.1231
     13 C12         1.7614    4.8684    2.0686 C.ar      1 <0>        -0.1230
     14 C13         0.7807    4.6481    3.0175 C.ar      1 <0>        -0.1302
     15 C14         0.5581    3.3711    3.4978 C.ar      1 <0>        -0.1097
     16 C15        -1.3366    0.3547    3.0536 C.3       1 <0>         0.1794
     17 C16        -1.7231   -0.7695    3.9799 C.ar      1 <0>        -0.0562
     18 C17        -2.1624   -1.9729    3.4566 C.ar      1 <0>        -0.1072
     19 C18        -2.5177   -3.0060    4.2984 C.ar      1 <0>        -0.0585
     20 C19        -2.4328   -2.8356    5.6822 C.ar      1 <0>        -0.1731
     21 C20        -1.9881   -1.6183    6.2035 C.ar      1 <0>        -0.0853
     22 C21        -1.6315   -0.5954    5.3498 C.ar      1 <0>        -0.1241
     23 C22        -2.8122   -3.9375    6.5903 C.2       1 <0>         0.4388
     24 O1         -3.0672   -5.0368    6.1386 O.2       1 <0>        -0.4503
     25 C23        -2.8814   -3.7033    8.0474 C.ar      1 <0>        -0.1507
     26 C24        -3.2970   -2.4640    8.5399 C.ar      1 <0>        -0.0839
     27 C25        -3.3592   -2.2523    9.9014 C.ar      1 <0>        -0.1297
     28 C26        -3.0112   -3.2642   10.7789 C.ar      1 <0>        -0.0968
     29 C27        -2.5986   -4.4945   10.2979 C.ar      1 <0>        -0.1289
     30 C28        -2.5371   -4.7220    8.9390 C.ar      1 <0>        -0.0689
     31 N2          1.1498   -0.0095   -1.9718 N.2       1 <0>        -1.0923
     32 S1          1.6419   -0.8939   -3.2825 S.o2      1 <0>         2.5224
     33 O2          2.9669   -1.3003   -2.9690 O.2       1 <0>        -1.0323
     34 O3          0.6153   -1.8572   -3.4761 O.2       1 <0>        -1.0326
     35 C29         1.6598    0.2856   -4.6606 C.3       1 <0>        -0.6377
     36 H1          1.2034    2.1691    0.3942 H         1 <0>         0.0573
     37 H2         -0.0722    1.7741   -0.7827 H         1 <0>         0.0581
     38 H3         -0.4604    1.8706    0.9517 H         1 <0>         0.0358
     39 H4          1.6348   -2.5506   -1.4342 H         1 <0>         0.0974
     40 H5          1.4160   -3.6314    0.7648 H         1 <0>         0.0966
     41 H6          0.6849   -2.3242    2.7157 H         1 <0>         0.0968
     42 H7          0.7169    0.9824    4.5881 H         1 <0>         0.0654
     43 H8          2.0165    0.3624    3.5418 H         1 <0>         0.0707
     44 H9          2.8969    1.7111    1.7224 H         1 <0>         0.1212
     45 H10         3.2885    3.9845    0.8614 H         1 <0>         0.1171
     46 H11         1.9335    5.8657    1.6913 H         1 <0>         0.1133
     47 H12         0.1865    5.4732    3.3816 H         1 <0>         0.1129
     48 H13        -0.2106    3.1984    4.2365 H         1 <0>         0.1126
     49 H14        -1.5279    1.3101    3.5422 H         1 <0>         0.0703
     50 H15        -1.9255    0.2902    2.1386 H         1 <0>         0.0761
     51 H16        -2.2275   -2.1033    2.3864 H         1 <0>         0.1315
     52 H17        -2.8610   -3.9444    3.8887 H         1 <0>         0.1299
     53 H18        -1.9201   -1.4798    7.2724 H         1 <0>         0.1329
     54 H19        -1.2836    0.3448    5.7513 H         1 <0>         0.1242
     55 H20        -3.5685   -1.6733    7.8562 H         1 <0>         0.1375
     56 H21        -3.6800   -1.2945   10.2835 H         1 <0>         0.1291
     57 H22        -3.0614   -3.0929   11.8440 H         1 <0>         0.1258
     58 H23        -2.3284   -5.2798   10.9884 H         1 <0>         0.1281
     59 H24        -2.2196   -5.6842    8.5650 H         1 <0>         0.1302
     60 H25         2.3543    1.0953   -4.4368 H         1 <0>         0.1137
     61 H26         1.9766   -0.2237   -5.5707 H         1 <0>         0.0988
     62 H27         0.6592    0.6940   -4.8024 H         1 <0>         0.1138
@<TRIPOS>BOND
     1    1    2 1
     2    1   36 1
     3    1   37 1
     4    1   38 1
     5    2    7 ar
     6    2    3 ar
     7    3    4 ar
     8    3   31 1
     9    4    5 ar
    10    4   39 1
    11    5    6 ar
    12    5   40 1
    13    6    7 ar
    14    6   41 1
    15    7    8 1
    16    8    9 1
    17    8   16 1
    18    9   10 1
    19    9   42 1
    20    9   43 1
    21   10   15 ar
    22   10   11 ar
    23   11   12 ar
    24   11   44 1
    25   12   13 ar
    26   12   45 1
    27   13   14 ar
    28   13   46 1
    29   14   15 ar
    30   14   47 1
    31   15   48 1
    32   16   17 1
    33   16   49 1
    34   16   50 1
    35   17   22 ar
    36   17   18 ar
    37   18   19 ar
    38   18   51 1
    39   19   20 ar
    40   19   52 1
    41   20   21 ar
    42   20   23 1
    43   21   22 ar
    44   21   53 1
    45   22   54 1
    46   23   24 2
    47   23   25 1
    48   25   30 ar
    49   25   26 ar
    50   26   27 ar
    51   26   55 1
    52   27   28 ar
    53   27   56 1
    54   28   29 ar
    55   28   57 1
    56   29   30 ar
    57   29   58 1
    58   30   59 1
    59   31   32 1
    60   32   33 2
    61   32   34 2
    62   32   35 1
    63   35   60 1
    64   35   61 1
    65   35   62 1
@<TRIPOS>MOLECULE
CHEMBL182842__1
   63    66     0     0     0
SMALL
USER_CHARGES

@<TRIPOS>ATOM
      1 C1         -0.9055    2.2767   -0.4707 C.3       1 <0>        -0.1210
      2 C2         -0.2483    0.9548   -0.1677 C.ar      1 <0>        -0.1030
      3 C3          0.0815    0.0890   -1.2011 C.ar      1 <0>         0.1503
      4 C4          0.6874   -1.1291   -0.9182 C.ar      1 <0>        -0.1735
      5 C5          0.9615   -1.4787    0.3902 C.ar      1 <0>        -0.0901
      6 C6          0.6342   -0.6195    1.4211 C.ar      1 <0>        -0.1296
      7 C7          0.0336    0.6031    1.1446 C.ar      1 <0>         0.1862
      8 N1         -0.2910    1.4742    2.1870 N.pl3     1 <0>        -0.6572
      9 C8          0.6805    2.4754    2.6343 C.3       1 <0>         0.1831
     10 C9          0.4892    3.7470    1.8487 C.ar      1 <0>        -0.1043
     11 C10         1.1768    3.9381    0.6648 C.ar      1 <0>        -0.0981
     12 C11         1.0014    5.1046   -0.0559 C.ar      1 <0>        -0.1252
     13 C12         0.1380    6.0798    0.4070 C.ar      1 <0>        -0.1168
     14 C13        -0.5503    5.8884    1.5904 C.ar      1 <0>        -0.1218
     15 C14        -0.3781    4.7201    2.3090 C.ar      1 <0>        -0.1060
     16 C15        -1.6029    1.3867    2.8330 C.3       1 <0>         0.1787
     17 C16        -1.5284    0.4283    3.9936 C.ar      1 <0>        -0.0722
     18 C17        -1.7873   -0.9164    3.7940 C.ar      1 <0>        -0.1128
     19 C18        -1.7210   -1.7992    4.8517 C.ar      1 <0>        -0.0618
     20 C19        -1.3911   -1.3331    6.1265 C.ar      1 <0>        -0.1590
     21 C20        -1.1306    0.0254    6.3205 C.ar      1 <0>        -0.0795
     22 C21        -1.1959    0.8961    5.2529 C.ar      1 <0>        -0.1182
     23 C22        -1.3185   -2.2726    7.2644 C.2       1 <0>         0.4376
     24 O1         -1.1306   -3.4567    7.0639 O.2       1 <0>        -0.4461
     25 C23        -1.4744   -1.7730    8.6460 C.ar      1 <0>        -0.1611
     26 C24        -2.1469   -0.5725    8.8863 C.ar      1 <0>        -0.0803
     27 C25        -2.2887   -0.1120   10.1786 C.ar      1 <0>        -0.1312
     28 C26        -1.7664   -0.8362   11.2359 C.ar      1 <0>        -0.0893
     29 C27        -1.0990   -2.0264   11.0052 C.ar      1 <0>        -0.1295
     30 C28        -0.9549   -2.5017    9.7185 C.ar      1 <0>        -0.0636
     31 N2         -0.1956    0.4414   -2.5238 N.pl3     1 <0>        -1.0523
     32 S1         -0.6471   -0.7211   -3.6133 S.o2      1 <0>         2.6072
     33 O2         -0.9441   -0.0058   -4.8047 O.2       1 <0>        -0.9511
     34 O3          0.4066   -1.6741   -3.5841 O.2       1 <0>        -0.9465
     35 C29        -2.1617   -1.4431   -2.9239 C.3       1 <0>        -0.6677
     36 H1         -0.1393    3.0367   -0.6241 H         1 <0>         0.0845
     37 H2         -1.5104    2.1834   -1.3726 H         1 <0>         0.0559
     38 H3         -1.5421    2.5661    0.3654 H         1 <0>         0.0730
     39 H4          0.9440   -1.8034   -1.7218 H         1 <0>         0.1595
     40 H5          1.4325   -2.4261    0.6074 H         1 <0>         0.1298
     41 H6          0.8495   -0.8960    2.4426 H         1 <0>         0.1244
     42 H7          0.5315    2.6777    3.6950 H         1 <0>         0.0767
     43 H8          1.6906    2.0981    2.4748 H         1 <0>         0.0742
     44 H9          1.8514    3.1761    0.3031 H         1 <0>         0.1178
     45 H10         1.5392    5.2541   -0.9805 H         1 <0>         0.1199
     46 H11         0.0015    6.9915   -0.1557 H         1 <0>         0.1194
     47 H12        -1.2245    6.6505    1.9523 H         1 <0>         0.1195
     48 H13        -0.9187    4.5689    3.2316 H         1 <0>         0.1175
     49 H14        -1.8966    2.3723    3.1940 H         1 <0>         0.0795
     50 H15        -2.3393    1.0291    2.1133 H         1 <0>         0.0758
     51 H16        -2.0422   -1.2754    2.8079 H         1 <0>         0.1261
     52 H17        -1.9239   -2.8483    4.6947 H         1 <0>         0.1309
     53 H18        -0.8750    0.3925    7.3035 H         1 <0>         0.1341
     54 H19        -0.9908    1.9461    5.4007 H         1 <0>         0.1266
     55 H20        -2.5546   -0.0061    8.0621 H         1 <0>         0.1354
     56 H21        -2.8081    0.8162   10.3659 H         1 <0>         0.1303
     57 H22        -1.8800   -0.4708   12.2459 H         1 <0>         0.1285
     58 H23        -0.6939   -2.5865   11.8350 H         1 <0>         0.1306
     59 H24        -0.4379   -3.4330    9.5402 H         1 <0>         0.1325
     60 H25        -0.1237    1.3672   -2.8043 H         1 <0>         0.4266
     61 H26        -2.9211   -0.6675   -2.8240 H         1 <0>         0.1311
     62 H27        -2.5268   -2.2255   -3.5892 H         1 <0>         0.1346
     63 H28        -1.9474   -1.8701   -1.9442 H         1 <0>         0.1314
@<TRIPOS>BOND
     1    1    2 1
     2    1   36 1
     3    1   37 1
     4    1   38 1
     5    2    7 ar
     6    2    3 ar
     7    3    4 ar
     8    3   31 1
     9    4    5 ar
    10    4   39 1
    11    5    6 ar
    12    5   40 1
    13    6    7 ar
    14    6   41 1
    15    7    8 1
    16    8    9 1
    17    8   16 1
    18    9   10 1
    19    9   42 1
    20    9   43 1
    21   10   15 ar
    22   10   11 ar
    23   11   12 ar
    24   11   44 1
    25   12   13 ar
    26   12   45 1
    27   13   14 ar
    28   13   46 1
    29   14   15 ar
    30   14   47 1
    31   15   48 1
    32   16   17 1
    33   16   49 1
    34   16   50 1
    35   17   22 ar
    36   17   18 ar
    37   18   19 ar
    38   18   51 1
    39   19   20 ar
    40   19   52 1
    41   20   21 ar
    42   20   23 1
    43   21   22 ar
    44   21   53 1
    45   22   54 1
    46   23   24 2
    47   23   25 1
    48   25   30 ar
    49   25   26 ar
    50   26   27 ar
    51   26   55 1
    52   27   28 ar
    53   27   56 1
    54   28   29 ar
    55   28   57 1
    56   29   30 ar
    57   29   58 1
    58   30   59 1
    59   31   32 1
    60   31   60 1
    61   32   33 2
    62   32   34 2
    63   32   35 1
    64   35   61 1
    65   35   62 1
    66   35   63 1
@<TRIPOS>MOLECULE
CHEMBL234602
   76    81     0     0     0
SMALL
USER_CHARGES

@<TRIPOS>ATOM
      1 C1          0.2690   -1.5146    3.6143 C.3       1 <0>        -0.1261
      2 C2         -0.5514   -2.7747    3.4497 C.2       1 <0>        -0.0973
      3 C3         -0.3573   -3.4756    2.3624 C.2       1 <0>        -0.1439
      4 C4         -1.0287   -4.7896    2.0963 C.3       1 <0>         0.1438
      5 N1         -1.4966   -5.3804    3.3595 N.3       1 <0>        -0.6659
      6 C5         -2.3185   -4.4384    4.0995 C.3       1 <0>         0.1152
      7 C6         -1.5076   -3.1949    4.4977 C.3       1 <0>         0.0102
      8 C7         -2.4954   -2.2150    5.0293 C.2       1 <0>        -0.1059
      9 C8         -3.3639   -2.7216    5.9938 C.2       1 <0>        -0.0058
     10 C9         -3.3149   -4.1551    6.3067 C.2       1 <0>        -0.1225
     11 C10        -2.8367   -5.0178    5.3963 C.2       1 <0>        -0.1168
     12 C11        -4.2743   -1.7785    6.6616 C.ar      1 <0>        -0.1177
     13 C12        -4.1068   -0.4013    6.4220 C.ar      1 <0>         0.1272
     14 C13        -4.9216    0.5202    7.0535 C.ar      1 <0>        -0.1271
     15 C14        -5.9173    0.0928    7.9128 C.ar      1 <0>        -0.0885
     16 C15        -6.1076   -1.2602    8.1416 C.ar      1 <0>         0.0618
     17 C16        -5.2933   -2.2004    7.5163 C.ar      1 <0>         0.1259
     18 O1         -5.5231   -3.5207    7.7417 O.3       1 <0>        -0.3200
     19 C17        -6.5130   -4.1549    6.9293 C.3       1 <0>         0.0357
     20 O2         -7.0953   -1.6756    8.9812 O.3       1 <0>        -0.4808
     21 O3         -3.1533    0.0163    5.5471 O.3       1 <0>        -0.2355
     22 C18        -2.7236   -0.8973    4.6320 C.2       1 <0>         0.1314
     23 C19        -2.6354   -0.5015    3.3382 C.2       1 <0>        -0.1596
     24 C20        -2.8050    0.9154    2.9905 C.ar      1 <0>         0.0517
     25 C21        -2.4153    1.9128    3.8927 C.ar      1 <0>        -0.0913
     26 C22        -2.5770    3.2401    3.5593 C.ar      1 <0>        -0.0954
     27 C23        -3.1241    3.5890    2.3339 C.ar      1 <0>         0.0766
     28 C24        -3.5126    2.6072    1.4359 C.ar      1 <0>        -0.0505
     29 C25        -3.3516    1.2754    1.7531 C.ar      1 <0>        -0.6528
     30 S1         -3.8395    0.0292    0.6069 S.o2      1 <0>         2.6860
     31 O4         -3.9436   -1.1816    1.3433 O.2       1 <0>        -0.9412
     32 O5         -4.9256    0.5643   -0.1368 O.2       1 <0>        -0.9516
     33 N2         -2.5888   -0.1716   -0.4598 N.pl3     1 <0>        -0.9934
     34 C26        -2.5843    0.5326   -1.7493 C.3       1 <0>         0.1155
     35 C27        -1.2658    1.3001   -1.8874 C.3       1 <0>        -0.1374
     36 C28        -0.0949    0.3335   -1.6950 C.3       1 <0>        -0.1173
     37 C29        -0.1566   -0.2721   -0.2909 C.3       1 <0>        -0.1378
     38 C30        -1.4596   -1.0527   -0.1321 C.3       1 <0>         0.1183
     39 F1         -3.2797    4.8923    2.0139 F         1 <0>        -0.1333
     40 C31        -0.0120   -5.7405    1.4560 C.3       1 <0>        -0.1350
     41 C32        -2.1958   -4.5907    1.1345 C.3       1 <0>        -0.1818
     42 H1          1.2052   -1.7539    4.1187 H         1 <0>         0.0700
     43 H2          0.4830   -1.0897    2.6336 H         1 <0>         0.0668
     44 H3         -0.2899   -0.7923    4.2092 H         1 <0>         0.0646
     45 H4          0.3199   -3.0872    1.6206 H         1 <0>         0.1156
     46 H5         -1.9786   -6.2513    3.1954 H         1 <0>         0.3504
     47 H6         -3.1770   -4.1250    3.5133 H         1 <0>         0.0595
     48 H7         -0.8928   -3.5121    5.3716 H         1 <0>         0.0970
     49 H8         -3.6352   -4.5250    7.2692 H         1 <0>         0.1409
     50 H9         -2.8180   -6.0767    5.5721 H         1 <0>         0.1354
     51 H10        -4.7818    1.5770    6.8778 H         1 <0>         0.1464
     52 H11        -6.5482    0.8167    8.4057 H         1 <0>         0.1481
     53 H12        -7.4907   -3.7242    7.1453 H         1 <0>         0.0460
     54 H13        -6.2727   -4.0011    5.8773 H         1 <0>         0.0493
     55 H14        -6.5307   -5.2231    7.1455 H         1 <0>         0.1005
     56 H15        -7.9436   -1.8314    8.5438 H         1 <0>         0.3864
     57 H16        -2.4404   -1.2281    2.5633 H         1 <0>         0.1758
     58 H17        -1.9893    1.6425    4.8476 H         1 <0>         0.1496
     59 H18        -2.2772    4.0105    4.2543 H         1 <0>         0.1457
     60 H19        -3.9387    2.8865    0.4835 H         1 <0>         0.1486
     61 H20        -2.6732   -0.1900   -2.5605 H         1 <0>         0.0794
     62 H21        -3.4197    1.2317   -1.7867 H         1 <0>         0.0925
     63 H22        -1.2081    1.7486   -2.8791 H         1 <0>         0.0784
     64 H23        -1.2194    2.0829   -1.1303 H         1 <0>         0.0672
     65 H24        -0.1558   -0.4628   -2.4369 H         1 <0>         0.0666
     66 H25         0.8446    0.8723   -1.8172 H         1 <0>         0.0667
     67 H26         0.6906   -0.9425   -0.1463 H         1 <0>         0.0779
     68 H27        -0.1207    0.5255    0.4512 H         1 <0>         0.0681
     69 H28        -1.5532   -1.3991    0.8971 H         1 <0>         0.0861
     70 H29        -1.4548   -1.9074   -0.8085 H         1 <0>         0.0785
     71 H30         0.8282   -5.8851    2.1351 H         1 <0>         0.0650
     72 H31        -0.4878   -6.7008    1.2571 H         1 <0>         0.0566
     73 H32         0.3469   -5.3122    0.5201 H         1 <0>         0.0616
     74 H33        -1.8147   -4.2951    0.1570 H         1 <0>         0.0653
     75 H34        -2.7522   -5.5233    1.0407 H         1 <0>         0.0572
     76 H35        -2.8544   -3.8117    1.5185 H         1 <0>         0.0690
@<TRIPOS>BOND
     1    1    2 1
     2    1   42 1
     3    1   43 1
     4    1   44 1
     5    2    7 1
     6    2    3 2
     7    3    4 1
     8    3   45 1
     9    4    5 1
    10    4   40 1
    11    4   41 1
    12    5    6 1
    13    5   46 1
    14    6   11 1
    15    6    7 1
    16    6   47 1
    17    7    8 1
    18    7   48 1
    19    8   22 1
    20    8    9 2
    21    9   10 1
    22    9   12 1
    23   10   11 2
    24   10   49 1
    25   11   50 1
    26   12   17 ar
    27   12   13 ar
    28   13   14 ar
    29   13   21 1
    30   14   15 ar
    31   14   51 1
    32   15   16 ar
    33   15   52 1
    34   16   17 ar
    35   16   20 1
    36   17   18 1
    37   18   19 1
    38   19   53 1
    39   19   54 1
    40   19   55 1
    41   20   56 1
    42   21   22 1
    43   22   23 2
    44   23   24 1
    45   23   57 1
    46   24   29 ar
    47   24   25 ar
    48   25   26 ar
    49   25   58 1
    50   26   27 ar
    51   26   59 1
    52   27   28 ar
    53   27   39 1
    54   28   29 ar
    55   28   60 1
    56   29   30 1
    57   30   31 2
    58   30   32 2
    59   30   33 1
    60   33   38 1
    61   33   34 1
    62   34   35 1
    63   34   61 1
    64   34   62 1
    65   35   36 1
    66   35   63 1
    67   35   64 1
    68   36   37 1
    69   36   65 1
    70   36   66 1
    71   37   38 1
    72   37   67 1
    73   37   68 1
    74   38   69 1
    75   38   70 1
    76   40   71 1
    77   40   72 1
    78   40   73 1
    79   41   74 1
    80   41   75 1
    81   41   76 1
@<TRIPOS>MOLECULE
CHEMBL234602__1
   77    82     0     0     0
SMALL
USER_CHARGES

@<TRIPOS>ATOM
      1 C1          0.4549   -0.5835    3.0175 C.3       1 <0>        -0.1370
      2 C2         -0.2451   -1.9139    2.8505 C.2       1 <0>        -0.0745
      3 C3         -0.0627   -2.5487    1.7204 C.2       1 <0>        -0.1892
      4 C4         -0.6160   -3.9134    1.4421 C.3       1 <0>         0.0998
      5 N1         -0.9195   -4.6057    2.7022 N.4       1 <0>        -0.4874
      6 C5         -1.7845   -3.7774    3.5260 C.3       1 <0>         0.0500
      7 C6         -1.0766   -2.4772    3.9381 C.3       1 <0>        -0.0089
      8 C7         -2.1131   -1.6261    4.5867 C.2       1 <0>        -0.0992
      9 C8         -2.8662   -2.2646    5.5698 C.2       1 <0>        -0.0067
     10 C9         -2.6613   -3.6996    5.8002 C.2       1 <0>        -0.0409
     11 C10        -2.1610   -4.4655    4.8194 C.2       1 <0>        -0.2051
     12 C11        -3.8206   -1.4531    6.3413 C.ar      1 <0>        -0.1339
     13 C12        -3.7906   -0.0544    6.1850 C.ar      1 <0>         0.1321
     14 C13        -4.6482    0.7475    6.9154 C.ar      1 <0>        -0.1234
     15 C14        -5.5527    0.1769    7.7932 C.ar      1 <0>        -0.0759
     16 C15        -5.6088   -1.1998    7.9410 C.ar      1 <0>         0.0697
     17 C16        -4.7496   -2.0197    7.2147 C.ar      1 <0>         0.1284
     18 O1         -4.8489   -3.3674    7.3599 O.3       1 <0>        -0.3234
     19 C17        -5.7912   -4.0423    6.5241 C.3       1 <0>         0.0320
     20 O2         -6.5073   -1.7564    8.7990 O.3       1 <0>        -0.4779
     21 O3         -2.9267    0.4998    5.2917 O.3       1 <0>        -0.2287
     22 C18        -2.4863   -0.3149    4.2909 C.2       1 <0>         0.1088
     23 C19        -2.5330    0.1628    3.0232 C.2       1 <0>        -0.1285
     24 C20        -2.9137    1.5602    2.7786 C.ar      1 <0>         0.0306
     25 C21        -2.5814    2.5530    3.7084 C.ar      1 <0>        -0.0838
     26 C22        -2.9414    3.8620    3.4718 C.ar      1 <0>        -0.0963
     27 C23        -3.6311    4.1970    2.3165 C.ar      1 <0>         0.0921
     28 C24        -3.9640    3.2195    1.3918 C.ar      1 <0>        -0.0523
     29 C25        -3.6055    1.9068    1.6120 C.ar      1 <0>        -0.6465
     30 S1         -4.0233    0.6671    0.4316 S.o2      1 <0>         2.6900
     31 O4         -3.9296   -0.5815    1.1035 O.2       1 <0>        -0.9546
     32 O5         -5.2160    1.1006   -0.2077 O.2       1 <0>        -0.9426
     33 N2         -2.8377    0.6726   -0.7246 N.pl3     1 <0>        -0.9936
     34 C26        -2.9601    1.5204   -1.9183 C.3       1 <0>         0.1154
     35 C27        -1.6998    2.3823   -2.0423 C.3       1 <0>        -0.1393
     36 C28        -0.4654    1.4776   -2.0378 C.3       1 <0>        -0.1187
     37 C29        -0.3979    0.7106   -0.7152 C.3       1 <0>        -0.1391
     38 C30        -1.6406   -0.1657   -0.5732 C.3       1 <0>         0.1187
     39 F1         -3.9809    5.4823    2.0913 F         1 <0>        -0.1265
     40 C31         0.4396   -4.7244    0.6814 C.3       1 <0>        -0.1733
     41 C32        -1.8671   -3.8022    0.5769 C.3       1 <0>        -0.1803
     42 H1          1.4372   -0.7431    3.4621 H         1 <0>         0.0869
     43 H2          0.5698   -0.1086    2.0432 H         1 <0>         0.0832
     44 H3         -0.1380    0.0598    3.6677 H         1 <0>         0.0797
     45 H4          0.5161   -2.0645    0.9518 H         1 <0>         0.1561
     46 H5         -1.3743   -5.4865    2.4994 H         1 <0>         0.4327
     47 H6         -2.7045   -3.5293    3.0062 H         1 <0>         0.1552
     48 H7         -0.3706   -2.7691    4.7492 H         1 <0>         0.1206
     49 H8         -2.8881   -4.1453    6.7571 H         1 <0>         0.1616
     50 H9         -2.0287   -5.5246    4.9372 H         1 <0>         0.1574
     51 H10        -4.6144    1.8218    6.8038 H         1 <0>         0.1516
     52 H11        -6.2179    0.8071    8.3635 H         1 <0>         0.1544
     53 H12        -6.8005   -3.7211    6.7814 H         1 <0>         0.0526
     54 H13        -5.5884   -3.8022    5.4804 H         1 <0>         0.0471
     55 H14        -5.7034   -5.1185    6.6730 H         1 <0>         0.1035
     56 H15        -7.3612   -1.9630    8.3949 H         1 <0>         0.3915
     57 H16        -2.2904   -0.4840    2.1931 H         1 <0>         0.1693
     58 H17        -2.0445    2.2935    4.6088 H         1 <0>         0.1509
     59 H18        -2.6861    4.6288    4.1882 H         1 <0>         0.1503
     60 H19        -4.5019    3.4877    0.4945 H         1 <0>         0.1528
     61 H20        -3.0620    0.8925   -2.8035 H         1 <0>         0.0828
     62 H21        -3.8347    2.1637   -1.8215 H         1 <0>         0.0930
     63 H22        -1.7346    2.9456   -2.9748 H         1 <0>         0.0826
     64 H23        -1.6474    3.0733   -1.2010 H         1 <0>         0.0683
     65 H24        -0.5305    0.7704   -2.8648 H         1 <0>         0.0679
     66 H25         0.4315    2.0865   -2.1507 H         1 <0>         0.0698
     67 H26         0.4940    0.0840   -0.7032 H         1 <0>         0.0761
     68 H27        -0.3577    1.4174    0.1136 H         1 <0>         0.0692
     69 H28        -1.6448   -0.6345    0.4108 H         1 <0>         0.0801
     70 H29        -1.6325   -0.9341   -1.3463 H         1 <0>         0.0783
     71 H30         1.3414   -4.8066    1.2881 H         1 <0>         0.0835
     72 H31         0.0507   -5.7208    0.4717 H         1 <0>         0.0853
     73 H32         0.6772   -4.2223   -0.2565 H         1 <0>         0.1093
     74 H33        -1.5913   -3.4502   -0.4171 H         1 <0>         0.1092
     75 H34        -2.3418   -4.7802    0.4972 H         1 <0>         0.0845
     76 H35        -2.5622   -3.0969    1.0323 H         1 <0>         0.0934
     77 H36        -0.0544   -4.7957    3.1933 H         1 <0>         0.4293
@<TRIPOS>BOND
     1    1    2 1
     2    1   42 1
     3    1   43 1
     4    1   44 1
     5    2    7 1
     6    2    3 2
     7    3    4 1
     8    3   45 1
     9    4    5 1
    10    4   40 1
    11    4   41 1
    12    5    6 1
    13    5   46 1
    14    5   77 1
    15    6   11 1
    16    6    7 1
    17    6   47 1
    18    7    8 1
    19    7   48 1
    20    8   22 1
    21    8    9 2
    22    9   10 1
    23    9   12 1
    24   10   11 2
    25   10   49 1
    26   11   50 1
    27   12   17 ar
    28   12   13 ar
    29   13   14 ar
    30   13   21 1
    31   14   15 ar
    32   14   51 1
    33   15   16 ar
    34   15   52 1
    35   16   17 ar
    36   16   20 1
    37   17   18 1
    38   18   19 1
    39   19   53 1
    40   19   54 1
    41   19   55 1
    42   20   56 1
    43   21   22 1
    44   22   23 2
    45   23   24 1
    46   23   57 1
    47   24   29 ar
    48   24   25 ar
    49   25   26 ar
    50   25   58 1
    51   26   27 ar
    52   26   59 1
    53   27   28 ar
    54   27   39 1
    55   28   29 ar
    56   28   60 1
    57   29   30 1
    58   30   31 2
    59   30   32 2
    60   30   33 1
    61   33   38 1
    62   33   34 1
    63   34   35 1
    64   34   61 1
    65   34   62 1
    66   35   36 1
    67   35   63 1
    68   35   64 1
    69   36   37 1
    70   36   65 1
    71   36   66 1
    72   37   38 1
    73   37   67 1
    74   37   68 1
    75   38   69 1
    76   38   70 1
    77   40   71 1
    78   40   72 1
    79   40   73 1
    80   41   74 1
    81   41   75 1
    82   41   76 1
@<TRIPOS>MOLECULE
CHEMBL234602__2
   76    81     0     0     0
SMALL
USER_CHARGES

@<TRIPOS>ATOM
      1 C1          4.0890    0.4788   -0.7043 C.3       1 <0>        -0.1319
      2 C2          4.1930   -1.0206   -0.5945 C.2       1 <0>        -0.1074
      3 C3          5.0292   -1.6412   -1.3699 C.2       1 <0>        -0.1744
      4 C4          5.2198   -3.1307   -1.3422 C.3       1 <0>         0.1385
      5 N1          4.0692   -3.7750   -0.6966 N.3       1 <0>        -0.6570
      6 C5          3.8011   -3.1586    0.6111 C.3       1 <0>         0.1147
      7 C6          3.3292   -1.7261    0.4107 C.3       1 <0>        -0.0303
      8 C7          3.3373   -0.9719    1.7115 C.2       1 <0>        -0.1249
      9 C8          4.2836   -1.2547    2.6571 C.2       1 <0>         0.0240
     10 C9          5.2631   -2.3209    2.4196 C.2       1 <0>        -0.1563
     11 C10         5.0425   -3.2068    1.4558 C.2       1 <0>        -0.1035
     12 C11         4.2863   -0.4677    3.9041 C.ar      1 <0>        -0.1280
     13 C12         3.2996    0.5138    4.0833 C.ar      1 <0>         0.1358
     14 C13         3.2897    1.2637    5.2491 C.ar      1 <0>        -0.1256
     15 C14         4.2424    1.0443    6.2269 C.ar      1 <0>        -0.0842
     16 C15         5.2182    0.0741    6.0564 C.ar      1 <0>         0.0635
     17 C16         5.2452   -0.6878    4.8943 C.ar      1 <0>         0.1286
     18 O1          6.1990   -1.6409    4.7231 O.3       1 <0>        -0.3175
     19 C17         5.9616   -2.9127    5.3300 C.3       1 <0>         0.0298
     20 O2          6.1493   -0.1322    7.0269 O.3       1 <0>        -0.4804
     21 O3          2.3641    0.7247    3.1288 O.3       1 <0>        -0.2182
     22 C18         2.3792    0.0295    1.9723 C.2       1 <0>         0.1731
     23 C19         1.4396    0.3038    1.0269 C.2       1 <0>        -0.2371
     24 C20         0.5151    1.4295    1.2153 C.ar      1 <0>         0.0713
     25 C21         1.0045    2.6864    1.5911 C.ar      1 <0>        -0.0981
     26 C22         0.1311    3.7381    1.7655 C.ar      1 <0>        -0.0938
     27 C23        -1.2291    3.5538    1.5697 C.ar      1 <0>         0.0737
     28 C24        -1.7210    2.3124    1.1980 C.ar      1 <0>        -0.0533
     29 C25        -0.8589    1.2525    1.0142 C.ar      1 <0>        -0.6539
     30 S1         -1.4856   -0.3229    0.5347 S.o2      1 <0>         2.6884
     31 O4         -0.7335   -1.2939    1.2494 O.2       1 <0>        -0.9408
     32 O5         -2.9015   -0.2405    0.6219 O.2       1 <0>        -0.9528
     33 N2         -1.1213   -0.5276   -1.0678 N.pl3     1 <0>        -0.9941
     34 C26        -1.9573    0.0842   -2.1096 C.3       1 <0>         0.1204
     35 C27        -1.0622    0.9124   -3.0368 C.3       1 <0>        -0.1376
     36 C28         0.0653    0.0282   -3.5744 C.3       1 <0>        -0.1152
     37 C29         0.9167   -0.4807   -2.4090 C.3       1 <0>        -0.1414
     38 C30         0.0475   -1.3196   -1.4745 C.3       1 <0>         0.1090
     39 F1         -2.0794    4.5894    1.7425 F         1 <0>        -0.1340
     40 C31         6.4923   -3.4649   -0.5613 C.3       1 <0>        -0.1492
     41 C32         5.3552   -3.6516   -2.7744 C.3       1 <0>        -0.1389
     42 H1          4.8689    0.9423   -0.1002 H         1 <0>         0.0648
     43 H2          4.2112    0.7762   -1.7458 H         1 <0>         0.0651
     44 H3          3.1116    0.8024   -0.3463 H         1 <0>         0.0726
     45 H4          5.6149   -1.0598   -2.0665 H         1 <0>         0.1127
     46 H5          3.2533   -3.7356   -1.2890 H         1 <0>         0.3477
     47 H6          3.0103   -3.7180    1.1109 H         1 <0>         0.1040
     48 H7          2.3047   -1.7470    0.0390 H         1 <0>         0.0967
     49 H8          6.1528   -2.3852    3.0285 H         1 <0>         0.1562
     50 H9          5.7794   -3.9749    1.2730 H         1 <0>         0.1443
     51 H10         2.5347    2.0222    5.3944 H         1 <0>         0.1485
     52 H11         4.2266    1.6343    7.1314 H         1 <0>         0.1500
     53 H12         5.8624   -2.7879    6.4083 H         1 <0>         0.0480
     54 H13         5.0436   -3.3414    4.9279 H         1 <0>         0.0540
     55 H14         6.7976   -3.5788    5.1167 H         1 <0>         0.1031
     56 H15         5.8904   -0.7897    7.6871 H         1 <0>         0.3878
     57 H16         1.3736   -0.3063    0.1382 H         1 <0>         0.1608
     58 H17         2.0637    2.8313    1.7443 H         1 <0>         0.1393
     59 H18         0.5070    4.7080    2.0557 H         1 <0>         0.1441
     60 H19        -2.7818    2.1761    1.0480 H         1 <0>         0.1537
     61 H20        -2.4551   -0.6969   -2.6842 H         1 <0>         0.0800
     62 H21        -2.7023    0.7315   -1.6469 H         1 <0>         0.0869
     63 H22        -1.6541    1.2933   -3.8690 H         1 <0>         0.0780
     64 H23        -0.6360    1.7474   -2.4806 H         1 <0>         0.0675
     65 H24        -0.3621   -0.8200   -4.1094 H         1 <0>         0.0671
     66 H25         0.6894    0.6086   -4.2538 H         1 <0>         0.0665
     67 H26         1.7333   -1.0912   -2.7943 H         1 <0>         0.0785
     68 H27         1.3243    0.3674   -1.8587 H         1 <0>         0.0696
     69 H28         0.6249   -1.5982   -0.5929 H         1 <0>         0.0908
     70 H29        -0.2832   -2.2177   -1.9961 H         1 <0>         0.0819
     71 H30         6.5742   -2.8027    0.3006 H         1 <0>         0.0710
     72 H31         6.4489   -4.4997   -0.2215 H         1 <0>         0.0723
     73 H32         7.3604   -3.3305   -1.2066 H         1 <0>         0.0588
     74 H33         6.2160   -3.1830   -3.2515 H         1 <0>         0.0635
     75 H34         5.4936   -4.7326   -2.7563 H         1 <0>         0.0677
     76 H35         4.4525   -3.4101   -3.3357 H         1 <0>         0.0557
@<TRIPOS>BOND
     1    1    2 1
     2    1   42 1
     3    1   43 1
     4    1   44 1
     5    2    7 1
     6    2    3 2
     7    3    4 1
     8    3   45 1
     9    4    5 1
    10    4   40 1
    11    4   41 1
    12    5    6 1
    13    5   46 1
    14    6   11 1
    15    6    7 1
    16    6   47 1
    17    7    8 1
    18    7   48 1
    19    8   22 1
    20    8    9 2
    21    9   10 1
    22    9   12 1
    23   10   11 2
    24   10   49 1
    25   11   50 1
    26   12   17 ar
    27   12   13 ar
    28   13   14 ar
    29   13   21 1
    30   14   15 ar
    31   14   51 1
    32   15   16 ar
    33   15   52 1
    34   16   17 ar
    35   16   20 1
    36   17   18 1
    37   18   19 1
    38   19   53 1
    39   19   54 1
    40   19   55 1
    41   20   56 1
    42   21   22 1
    43   22   23 2
    44   23   24 1
    45   23   57 1
    46   24   29 ar
    47   24   25 ar
    48   25   26 ar
    49   25   58 1
    50   26   27 ar
    51   26   59 1
    52   27   28 ar
    53   27   39 1
    54   28   29 ar
    55   28   60 1
    56   29   30 1
    57   30   31 2
    58   30   32 2
    59   30   33 1
    60   33   38 1
    61   33   34 1
    62   34   35 1
    63   34   61 1
    64   34   62 1
    65   35   36 1
    66   35   63 1
    67   35   64 1
    68   36   37 1
    69   36   65 1
    70   36   66 1
    71   37   38 1
    72   37   67 1
    73   37   68 1
    74   38   69 1
    75   38   70 1
    76   40   71 1
    77   40   72 1
    78   40   73 1
    79   41   74 1
    80   41   75 1
    81   41   76 1
@<TRIPOS>MOLECULE
CHEMBL234602__3
   77    82     0     0     0
SMALL
USER_CHARGES

@<TRIPOS>ATOM
      1 C1          4.1167    0.8276    0.0895 C.3       1 <0>        -0.1416
      2 C2          4.2093   -0.6757    0.1381 C.2       1 <0>        -0.0804
      3 C3          5.0571   -1.2726   -0.6446 C.2       1 <0>        -0.1774
      4 C4          5.2312   -2.7638   -0.6724 C.3       1 <0>         0.1010
      5 N1          4.0504   -3.4238   -0.1036 N.4       1 <0>        -0.4973
      6 C5          3.7789   -2.8660    1.2285 C.3       1 <0>         0.0735
      7 C6          3.3216   -1.4208    1.0938 C.3       1 <0>        -0.0256
      8 C7          3.3211   -0.7327    2.4311 C.2       1 <0>        -0.1134
      9 C8          4.2546   -1.0706    3.3712 C.2       1 <0>         0.0173
     10 C9          5.2287   -2.1315    3.0908 C.2       1 <0>        -0.0694
     11 C10         5.0114   -2.9672    2.0814 C.2       1 <0>        -0.2053
     12 C11         4.2496   -0.3474    4.6561 C.ar      1 <0>        -0.1410
     13 C12         3.2696    0.6332    4.8733 C.ar      1 <0>         0.1422
     14 C13         3.2528    1.3239    6.0751 C.ar      1 <0>        -0.1214
     15 C14         4.1917    1.0466    7.0514 C.ar      1 <0>        -0.0720
     16 C15         5.1606    0.0767    6.8435 C.ar      1 <0>         0.0716
     17 C16         5.1947   -0.6261    5.6449 C.ar      1 <0>         0.1286
     18 O1          6.1414   -1.5789    5.4373 O.3       1 <0>        -0.3210
     19 C17         5.8840   -2.8774    5.9756 C.3       1 <0>         0.0252
     20 O2          6.0782   -0.1871    7.8131 O.3       1 <0>        -0.4778
     21 O3          2.3473    0.9007    3.9202 O.3       1 <0>        -0.2106
     22 C18         2.3683    0.2625    2.7313 C.2       1 <0>         0.1582
     23 C19         1.4403    0.5904    1.7915 C.2       1 <0>        -0.2114
     24 C20         0.5223    1.7127    2.0261 C.ar      1 <0>         0.0518
     25 C21         1.0180    2.9478    2.4616 C.ar      1 <0>        -0.0922
     26 C22         0.1507    3.9964    2.6791 C.ar      1 <0>        -0.0935
     27 C23        -1.2096    3.8308    2.4679 C.ar      1 <0>         0.0873
     28 C24        -1.7076    2.6110    2.0373 C.ar      1 <0>        -0.0537
     29 C25        -0.8516    1.5547    1.8099 C.ar      1 <0>        -0.6481
     30 S1         -1.4862    0.0072    1.2556 S.o2      1 <0>         2.6893
     31 O4         -0.7440   -1.0006    1.9285 O.2       1 <0>        -0.9484
     32 O5         -2.9020    0.0951    1.3401 O.2       1 <0>        -0.9435
     33 N2         -1.1154   -0.1262   -0.3528 N.pl3     1 <0>        -0.9949
     34 C26        -1.9439    0.5362   -1.3695 C.3       1 <0>         0.1184
     35 C27        -1.0408    1.4015   -2.2541 C.3       1 <0>        -0.1393
     36 C28         0.0852    0.5374   -2.8264 C.3       1 <0>        -0.1164
     37 C29         0.9290   -0.0278   -1.6814 C.3       1 <0>        -0.1440
     38 C30         0.0518   -0.9043   -0.7899 C.3       1 <0>         0.1089
     39 F1         -2.0538    4.8633    2.6832 F         1 <0>        -0.1278
     40 C31         6.4675   -3.1450    0.1445 C.3       1 <0>        -0.1843
     41 C32         5.4218   -3.2249   -2.1188 C.3       1 <0>        -0.1724
     42 H1          4.8861    1.2599    0.7293 H         1 <0>         0.0831
     43 H2          4.2633    1.1678   -0.9356 H         1 <0>         0.0825
     44 H3          3.1337    1.1426    0.4398 H         1 <0>         0.0830
     45 H4          5.6632   -0.6697   -1.3047 H         1 <0>         0.1551
     46 H5          3.2546   -3.2663   -0.7035 H         1 <0>         0.4306
     47 H6          2.9779   -3.4394    1.6951 H         1 <0>         0.1569
     48 H7          2.3027   -1.4126    0.7067 H         1 <0>         0.1246
     49 H8          6.1116   -2.2330    3.7044 H         1 <0>         0.1761
     50 H9          5.7440   -3.7312    1.8673 H         1 <0>         0.1655
     51 H10         2.5031    2.0815    6.2496 H         1 <0>         0.1541
     52 H11         4.1705    1.5906    7.9842 H         1 <0>         0.1566
     53 H12         5.7721   -2.8065    7.0575 H         1 <0>         0.0553
     54 H13         4.9673   -3.2757    5.5408 H         1 <0>         0.0514
     55 H14         6.7163   -3.5403    5.7390 H         1 <0>         0.1065
     56 H15         5.8053   -0.8743    8.4363 H         1 <0>         0.3927
     57 H16         1.3787    0.0252    0.8733 H         1 <0>         0.1557
     58 H17         2.0773    3.0781    2.6268 H         1 <0>         0.1405
     59 H18         0.5315    4.9495    3.0153 H         1 <0>         0.1485
     60 H19        -2.7685    2.4892    1.8755 H         1 <0>         0.1573
     61 H20        -2.4425   -0.2157   -1.9811 H         1 <0>         0.0829
     62 H21        -2.6882    1.1652   -0.8812 H         1 <0>         0.0910
     63 H22        -1.6272    1.8225   -3.0708 H         1 <0>         0.0828
     64 H23        -0.6135    2.2083   -1.6587 H         1 <0>         0.0692
     65 H24        -0.3434   -0.2836   -3.4012 H         1 <0>         0.0688
     66 H25         0.7151    1.1452   -3.4759 H         1 <0>         0.0698
     67 H26         1.7446   -0.6240   -2.0905 H         1 <0>         0.0729
     68 H27         1.3377    0.7925   -1.0914 H         1 <0>         0.0716
     69 H28         0.6238   -1.2253    0.0806 H         1 <0>         0.0805
     70 H29        -0.2805   -1.7762   -1.3533 H         1 <0>         0.0826
     71 H30         6.5456   -2.4901    1.0123 H         1 <0>         0.1035
     72 H31         6.3788   -4.1793    0.4767 H         1 <0>         0.0844
     73 H32         7.3588   -3.0370   -0.4735 H         1 <0>         0.1029
     74 H33         6.3067   -2.7467   -2.5389 H         1 <0>         0.1086
     75 H34         5.5484   -4.3073   -2.1414 H         1 <0>         0.0851
     76 H35         4.5462   -2.9491   -2.7064 H         1 <0>         0.0836
     77 H36         4.2233   -4.4148   -0.0251 H         1 <0>         0.4348
@<TRIPOS>BOND
     1    1    2 1
     2    1   42 1
     3    1   43 1
     4    1   44 1
     5    2    7 1
     6    2    3 2
     7    3    4 1
     8    3   45 1
     9    4    5 1
    10    4   40 1
    11    4   41 1
    12    5    6 1
    13    5   46 1
    14    5   77 1
    15    6   11 1
    16    6    7 1
    17    6   47 1
    18    7    8 1
    19    7   48 1
    20    8   22 1
    21    8    9 2
    22    9   10 1
    23    9   12 1
    24   10   11 2
    25   10   49 1
    26   11   50 1
    27   12   17 ar
    28   12   13 ar
    29   13   14 ar
    30   13   21 1
    31   14   15 ar
    32   14   51 1
    33   15   16 ar
    34   15   52 1
    35   16   17 ar
    36   16   20 1
    37   17   18 1
    38   18   19 1
    39   19   53 1
    40   19   54 1
    41   19   55 1
    42   20   56 1
    43   21   22 1
    44   22   23 2
    45   23   24 1
    46   23   57 1
    47   24   29 ar
    48   24   25 ar
    49   25   26 ar
    50   25   58 1
    51   26   27 ar
    52   26   59 1
    53   27   28 ar
    54   27   39 1
    55   28   29 ar
    56   28   60 1
    57   29   30 1
    58   30   31 2
    59   30   32 2
    60   30   33 1
    61   33   38 1
    62   33   34 1
    63   34   35 1
    64   34   61 1
    65   34   62 1
    66   35   36 1
    67   35   63 1
    68   35   64 1
    69   36   37 1
    70   36   65 1
    71   36   66 1
    72   37   38 1
    73   37   67 1
    74   37   68 1
    75   38   69 1
    76   38   70 1
    77   40   71 1
    78   40   72 1
    79   40   73 1
    80   41   74 1
    81   41   75 1
    82   41   76 1
@<TRIPOS>MOLECULE
CHEMBL234602__4
   76    81     0     0     0
SMALL
USER_CHARGES

@<TRIPOS>ATOM
      1 C1         -0.2018    2.2840   -0.1835 C.3       1 <0>        -0.1269
      2 C2         -0.3287    0.7983   -0.4017 C.2       1 <0>        -0.0981
      3 C3         -0.5163    0.3642   -1.6109 C.2       1 <0>        -0.1437
      4 C4         -0.6618   -1.0930   -1.9438 C.3       1 <0>         0.1422
      5 N1         -0.1262   -1.9161   -0.8523 N.3       1 <0>        -0.6622
      6 C5         -0.7132   -1.5110    0.4335 C.3       1 <0>         0.1159
      7 C6         -0.2262   -0.1111    0.7886 C.3       1 <0>         0.0100
      8 C7         -1.0213    0.4530    1.9336 C.2       1 <0>        -0.1238
      9 C8         -2.3408    0.1235    2.0742 C.2       1 <0>         0.0217
     10 C9         -2.9683   -0.8118    1.1338 C.2       1 <0>        -0.1475
     11 C10        -2.2118   -1.5684    0.3444 C.2       1 <0>        -0.1505
     12 C11        -3.1000    0.7268    3.1849 C.ar      1 <0>        -0.1283
     13 C12        -2.4306    1.5858    4.0700 C.ar      1 <0>         0.1300
     14 C13        -3.1307    2.1630    5.1179 C.ar      1 <0>        -0.1244
     15 C14        -4.4757    1.8925    5.2903 C.ar      1 <0>        -0.0861
     16 C15        -5.1416    1.0423    4.4206 C.ar      1 <0>         0.0707
     17 C16        -4.4572    0.4540    3.3636 C.ar      1 <0>         0.1267
     18 O1         -5.1053   -0.3813    2.5094 O.3       1 <0>        -0.3229
     19 C17        -5.1178   -1.7703    2.8449 C.3       1 <0>         0.0323
     20 O2         -6.4650    0.7833    4.6024 O.3       1 <0>        -0.4858
     21 O3         -1.1134    1.8466    3.9042 O.3       1 <0>        -0.2168
     22 C18        -0.4240    1.3228    2.8691 C.2       1 <0>         0.1630
     23 C19         0.8902    1.6445    2.7233 C.2       1 <0>        -0.2401
     24 C20         1.4958    2.6679    3.5854 C.ar      1 <0>         0.0691
     25 C21         0.7022    3.6782    4.1422 C.ar      1 <0>        -0.1037
     26 C22         1.2773    4.6348    4.9505 C.ar      1 <0>        -0.0945
     27 C23         2.6383    4.5984    5.2129 C.ar      1 <0>         0.0712
     28 C24         3.4304    3.6016    4.6649 C.ar      1 <0>        -0.0516
     29 C25         2.8682    2.6347    3.8592 C.ar      1 <0>        -0.6567
     30 S1          3.8758    1.3643    3.1696 S.o2      1 <0>         2.6917
     31 O4          3.5237    1.2671    1.7964 O.2       1 <0>        -0.9475
     32 O5          5.2056    1.6228    3.5987 O.2       1 <0>        -0.9526
     33 N2          3.4189   -0.0614    3.8774 N.pl3     1 <0>        -0.9903
     34 C26         3.9550   -0.4519    5.1885 C.3       1 <0>         0.1212
     35 C27         2.7848   -0.7628    6.1269 C.3       1 <0>        -0.1362
     36 C28         1.8818   -1.8146    5.4786 C.3       1 <0>        -0.1151
     37 C29         1.3162   -1.2652    4.1669 C.3       1 <0>        -0.1385
     38 C30         2.4651   -0.9571    3.2090 C.3       1 <0>         0.1151
     39 F1          3.1952    5.5395    6.0062 F         1 <0>        -0.1346
     40 C31        -2.1422   -1.4215   -2.1475 C.3       1 <0>        -0.1864
     41 C32         0.1047   -1.3980   -3.2323 C.3       1 <0>        -0.1353
     42 H1          0.8450    2.5757   -0.2691 H         1 <0>         0.0756
     43 H2         -0.7890    2.8129   -0.9341 H         1 <0>         0.0620
     44 H3         -0.5695    2.5379    0.8107 H         1 <0>         0.0614
     45 H4         -0.5705    1.0842   -2.4141 H         1 <0>         0.1145
     46 H5         -0.2833   -2.8971   -1.0285 H         1 <0>         0.3496
     47 H6         -0.3775   -2.1996    1.2089 H         1 <0>         0.0991
     48 H7          0.8175   -0.1674    1.0977 H         1 <0>         0.1072
     49 H8         -4.0445   -0.8837    1.0775 H         1 <0>         0.1523
     50 H9         -2.6762   -2.2379   -0.3645 H         1 <0>         0.1387
     51 H10        -2.6235    2.8264    5.8028 H         1 <0>         0.1484
     52 H11        -5.0123    2.3473    6.1098 H         1 <0>         0.1501
     53 H12        -4.0940   -2.1408    2.8965 H         1 <0>         0.0525
     54 H13        -5.6026   -1.9062    3.8117 H         1 <0>         0.0555
     55 H14        -5.6664   -2.3233    2.0825 H         1 <0>         0.1002
     56 H15        -7.0528    1.3962    4.1399 H         1 <0>         0.3953
     57 H16         1.4879    1.1472    1.9738 H         1 <0>         0.1797
     58 H17        -0.3580    3.7080    3.9384 H         1 <0>         0.1461
     59 H18         0.6665    5.4149    5.3803 H         1 <0>         0.1429
     60 H19         4.4899    3.5801    4.8731 H         1 <0>         0.1541
     61 H20         4.5805   -1.3377    5.0784 H         1 <0>         0.0796
     62 H21         4.5459    0.3664    5.6000 H         1 <0>         0.0875
     63 H22         3.1686   -1.1459    7.0725 H         1 <0>         0.0766
     64 H23         2.2120    0.1467    6.3080 H         1 <0>         0.0669
     65 H24         2.4612   -2.7152    5.2752 H         1 <0>         0.0662
     66 H25         1.0617   -2.0558    6.1549 H         1 <0>         0.0634
     67 H26         0.6547   -2.0059    3.7174 H         1 <0>         0.0726
     68 H27         0.7572   -0.3510    4.3664 H         1 <0>         0.0693
     69 H28         2.0733   -0.4720    2.3150 H         1 <0>         0.0911
     70 H29         2.9664   -1.8850    2.9339 H         1 <0>         0.0792
     71 H30        -2.4400   -1.1444   -3.1587 H         1 <0>         0.0622
     72 H31        -2.3006   -2.4900   -2.0020 H         1 <0>         0.0596
     73 H32        -2.7405   -0.8640   -1.4269 H         1 <0>         0.0744
     74 H33         1.1592   -1.1598   -3.0929 H         1 <0>         0.0670
     75 H34         0.0002   -2.4554   -3.4756 H         1 <0>         0.0569
     76 H35        -0.2992   -0.7963   -4.0465 H         1 <0>         0.0615
@<TRIPOS>BOND
     1    1    2 1
     2    1   42 1
     3    1   43 1
     4    1   44 1
     5    2    7 1
     6    2    3 2
     7    3    4 1
     8    3   45 1
     9    4    5 1
    10    4   40 1
    11    4   41 1
    12    5    6 1
    13    5   46 1
    14    6   11 1
    15    6    7 1
    16    6   47 1
    17    7    8 1
    18    7   48 1
    19    8   22 1
    20    8    9 2
    21    9   10 1
    22    9   12 1
    23   10   11 2
    24   10   49 1
    25   11   50 1
    26   12   17 ar
    27   12   13 ar
    28   13   14 ar
    29   13   21 1
    30   14   15 ar
    31   14   51 1
    32   15   16 ar
    33   15   52 1
    34   16   17 ar
    35   16   20 1
    36   17   18 1
    37   18   19 1
    38   19   53 1
    39   19   54 1
    40   19   55 1
    41   20   56 1
    42   21   22 1
    43   22   23 2
    44   23   24 1
    45   23   57 1
    46   24   29 ar
    47   24   25 ar
    48   25   26 ar
    49   25   58 1
    50   26   27 ar
    51   26   59 1
    52   27   28 ar
    53   27   39 1
    54   28   29 ar
    55   28   60 1
    56   29   30 1
    57   30   31 2
    58   30   32 2
    59   30   33 1
    60   33   38 1
    61   33   34 1
    62   34   35 1
    63   34   61 1
    64   34   62 1
    65   35   36 1
    66   35   63 1
    67   35   64 1
    68   36   37 1
    69   36   65 1
    70   36   66 1
    71   37   38 1
    72   37   67 1
    73   37   68 1
    74   38   69 1
    75   38   70 1
    76   40   71 1
    77   40   72 1
    78   40   73 1
    79   41   74 1
    80   41   75 1
    81   41   76 1
@<TRIPOS>MOLECULE
CHEMBL234602__5
   77    82     0     0     0
SMALL
USER_CHARGES

@<TRIPOS>ATOM
      1 C1         -0.0673    2.4533   -0.1026 C.3       1 <0>        -0.1364
      2 C2         -0.2763    0.9819   -0.3520 C.2       1 <0>        -0.0758
      3 C3         -0.5331    0.5861   -1.5624 C.2       1 <0>        -0.1810
      4 C4         -0.7610   -0.8549   -1.9181 C.3       1 <0>         0.1022
      5 N1         -0.1989   -1.7290   -0.8821 N.4       1 <0>        -0.4983
      6 C5         -0.7330   -1.3321    0.4280 C.3       1 <0>         0.0724
      7 C6         -0.1728    0.0336    0.8084 C.3       1 <0>        -0.0286
      8 C7         -0.9083    0.5962    1.9936 C.2       1 <0>        -0.1161
      9 C8         -2.2366    0.3207    2.1642 C.2       1 <0>         0.0211
     10 C9         -2.9327   -0.5556    1.2153 C.2       1 <0>        -0.0758
     11 C10        -2.2344   -1.3202    0.3810 C.2       1 <0>        -0.2007
     12 C11        -2.9352    0.9216    3.3152 C.ar      1 <0>        -0.1415
     13 C12        -2.2028    1.7235    4.2040 C.ar      1 <0>         0.1358
     14 C13        -2.8455    2.2978    5.2897 C.ar      1 <0>        -0.1207
     15 C14        -4.1953    2.0802    5.4956 C.ar      1 <0>        -0.0740
     16 C15        -4.9234    1.2865    4.6224 C.ar      1 <0>         0.0790
     17 C16        -4.2972    0.7020    3.5278 C.ar      1 <0>         0.1280
     18 O1         -5.0065   -0.0778    2.6698 O.3       1 <0>        -0.3251
     19 C17        -5.0700   -1.4747    2.9642 C.3       1 <0>         0.0275
     20 O2         -6.2509    1.0793    4.8374 O.3       1 <0>        -0.4834
     21 O3         -0.8809    1.9323    4.0054 O.3       1 <0>        -0.2100
     22 C18        -0.2455    1.4093    2.9359 C.2       1 <0>         0.1479
     23 C19         1.0776    1.6751    2.7612 C.2       1 <0>        -0.2192
     24 C20         1.7545    2.6411    3.6365 C.ar      1 <0>         0.0507
     25 C21         1.0266    3.6737    4.2402 C.ar      1 <0>        -0.0960
     26 C22         1.6684    4.5760    5.0606 C.ar      1 <0>        -0.0943
     27 C23         3.0314    4.4632    5.2888 C.ar      1 <0>         0.0865
     28 C24         3.7586    3.4438    4.6943 C.ar      1 <0>        -0.0525
     29 C25         3.1292    2.5304    3.8758 C.ar      1 <0>        -0.6507
     30 S1          4.0543    1.2311    3.1269 S.o2      1 <0>         2.6944
     31 O4          3.6686    1.1937    1.7598 O.2       1 <0>        -0.9591
     32 O5          5.4046    1.4077    3.5330 O.2       1 <0>        -0.9425
     33 N2          3.5386   -0.1898    3.8032 N.pl3     1 <0>        -0.9912
     34 C26         4.0768   -0.6438    5.0928 C.3       1 <0>         0.1194
     35 C27         2.9087   -0.9231    6.0437 C.3       1 <0>        -0.1380
     36 C28         1.9431   -1.9098    5.3832 C.3       1 <0>        -0.1161
     37 C29         1.3835   -1.2956    4.0980 C.3       1 <0>        -0.1412
     38 C30         2.5298   -1.0175    3.1279 C.3       1 <0>         0.1165
     39 F1          3.6539    5.3514    6.0943 F         1 <0>        -0.1278
     40 C31        -2.2638   -1.1151   -2.0400 C.3       1 <0>        -0.1831
     41 C32        -0.0873   -1.1588   -3.2578 C.3       1 <0>        -0.1733
     42 H1          0.9884    2.6960   -0.2237 H         1 <0>         0.0914
     43 H2         -0.6567    3.0299   -0.8155 H         1 <0>         0.0791
     44 H3         -0.3825    2.6983    0.9116 H         1 <0>         0.0752
     45 H4         -0.5853    1.3261   -2.3473 H         1 <0>         0.1549
     46 H5         -0.4538   -2.6862   -1.0741 H         1 <0>         0.4338
     47 H6         -0.4084   -2.0558    1.1758 H         1 <0>         0.1535
     48 H7          0.8770   -0.0762    1.0804 H         1 <0>         0.1290
     49 H8         -4.0122   -0.5777    1.1892 H         1 <0>         0.1751
     50 H9         -2.7483   -1.9457   -0.3339 H         1 <0>         0.1679
     51 H10        -2.2896    2.9175    5.9777 H         1 <0>         0.1535
     52 H11        -4.6869    2.5322    6.3444 H         1 <0>         0.1566
     53 H12        -4.0624   -1.8903    2.9730 H         1 <0>         0.0489
     54 H13        -5.5313   -1.6195    3.9412 H         1 <0>         0.0625
     55 H14        -5.6648   -1.9798    2.2032 H         1 <0>         0.1050
     56 H15        -6.8247    1.7307    4.4114 H         1 <0>         0.4007
     57 H16         1.6300    1.1758    1.9789 H         1 <0>         0.1735
     58 H17        -0.0350    3.7630    4.0631 H         1 <0>         0.1468
     59 H18         1.1084    5.3733    5.5267 H         1 <0>         0.1478
     60 H19         4.8201    3.3626    4.8760 H         1 <0>         0.1580
     61 H20         4.6551   -1.5561    4.9466 H         1 <0>         0.0829
     62 H21         4.7150    0.1319    5.5159 H         1 <0>         0.0917
     63 H22         3.2889   -1.3517    6.9710 H         1 <0>         0.0819
     64 H23         2.3854    0.0082    6.2605 H         1 <0>         0.0685
     65 H24         2.4731   -2.8317    5.1442 H         1 <0>         0.0679
     66 H25         1.1236   -2.1292    6.0676 H         1 <0>         0.0672
     67 H26         0.6781   -1.9893    3.6404 H         1 <0>         0.0679
     68 H27         0.8745   -0.3608    4.3331 H         1 <0>         0.0721
     69 H28         2.1476   -0.4882    2.2551 H         1 <0>         0.0770
     70 H29         2.9792   -1.9610    2.8180 H         1 <0>         0.0796
     71 H30        -2.6033   -0.8253   -3.0344 H         1 <0>         0.1032
     72 H31        -2.4629   -2.1751   -1.8826 H         1 <0>         0.0839
     73 H32        -2.7958   -0.5301   -1.2897 H         1 <0>         0.1028
     74 H33         0.9828   -0.9679   -3.1779 H         1 <0>         0.0847
     75 H34        -0.2515   -2.2044   -3.5181 H         1 <0>         0.0848
     76 H35        -0.5134   -0.5204   -4.0318 H         1 <0>         0.1087
     77 H36         0.8063   -1.6418   -0.8767 H         1 <0>         0.4329
@<TRIPOS>BOND
     1    1    2 1
     2    1   42 1
     3    1   43 1
     4    1   44 1
     5    2    7 1
     6    2    3 2
     7    3    4 1
     8    3   45 1
     9    4    5 1
    10    4   40 1
    11    4   41 1
    12    5    6 1
    13    5   46 1
    14    5   77 1
    15    6   11 1
    16    6    7 1
    17    6   47 1
    18    7    8 1
    19    7   48 1
    20    8   22 1
    21    8    9 2
    22    9   10 1
    23    9   12 1
    24   10   11 2
    25   10   49 1
    26   11   50 1
    27   12   17 ar
    28   12   13 ar
    29   13   14 ar
    30   13   21 1
    31   14   15 ar
    32   14   51 1
    33   15   16 ar
    34   15   52 1
    35   16   17 ar
    36   16   20 1
    37   17   18 1
    38   18   19 1
    39   19   53 1
    40   19   54 1
    41   19   55 1
    42   20   56 1
    43   21   22 1
    44   22   23 2
    45   23   24 1
    46   23   57 1
    47   24   29 ar
    48   24   25 ar
    49   25   26 ar
    50   25   58 1
    51   26   27 ar
    52   26   59 1
    53   27   28 ar
    54   27   39 1
    55   28   29 ar
    56   28   60 1
    57   29   30 1
    58   30   31 2
    59   30   32 2
    60   30   33 1
    61   33   38 1
    62   33   34 1
    63   34   35 1
    64   34   61 1
    65   34   62 1
    66   35   36 1
    67   35   63 1
    68   35   64 1
    69   36   37 1
    70   36   65 1
    71   36   66 1
    72   37   38 1
    73   37   67 1
    74   37   68 1
    75   38   69 1
    76   38   70 1
    77   40   71 1
    78   40   72 1
    79   40   73 1
    80   41   74 1
    81   41   75 1
    82   41   76 1
@<TRIPOS>MOLECULE
CHEMBL234602__6
   76    81     0     0     0
SMALL
USER_CHARGES

@<TRIPOS>ATOM
      1 C1          0.0754    2.1381    0.4156 C.3       1 <0>        -0.1215
      2 C2         -0.1814    0.6668    0.1766 C.2       1 <0>        -0.1114
      3 C3         -0.4123    0.2921   -1.0552 C.2       1 <0>        -0.1656
      4 C4         -0.7676   -1.1138   -1.4368 C.3       1 <0>         0.1426
      5 N1         -1.2910   -1.8363   -0.2671 N.3       1 <0>        -0.6597
      6 C5         -0.3704   -1.7466    0.8527 C.3       1 <0>         0.1186
      7 C6         -0.1938   -0.2887    1.3060 C.3       1 <0>        -0.0320
      8 C7          0.9375   -0.2976    2.2752 C.2       1 <0>        -0.1122
      9 C8          0.8315   -1.2460    3.2902 C.2       1 <0>         0.0035
     10 C9         -0.2777   -2.2067    3.2460 C.2       1 <0>        -0.1289
     11 C10        -0.8646   -2.4912    2.0724 C.2       1 <0>        -0.1109
     12 C11         1.8347   -1.2153    4.3660 C.ar      1 <0>        -0.1210
     13 C12         2.7493   -0.1455    4.3993 C.ar      1 <0>         0.1291
     14 C13         3.6893   -0.0635    5.4103 C.ar      1 <0>        -0.1273
     15 C14         3.7456   -1.0401    6.3876 C.ar      1 <0>        -0.0875
     16 C15         2.8651   -2.1091    6.3563 C.ar      1 <0>         0.0662
     17 C16         1.9118   -2.2052    5.3462 C.ar      1 <0>         0.1287
     18 O1          1.0814   -3.2810    5.3296 O.3       1 <0>        -0.3250
     19 C17         1.5264   -4.4330    4.6107 C.3       1 <0>         0.0395
     20 O2          2.9299   -3.0717    7.3167 O.3       1 <0>        -0.4866
     21 O3          2.7182    0.7972    3.4201 O.3       1 <0>        -0.2339
     22 C18         2.1181    0.4452    2.2491 C.2       1 <0>         0.1478
     23 C19         2.7586    0.7497    1.0933 C.2       1 <0>        -0.1992
     24 C20         3.8985    1.6759    1.1074 C.ar      1 <0>         0.0579
     25 C21         3.9686    2.6907    2.0697 C.ar      1 <0>        -0.0924
     26 C22         5.0414    3.5556    2.0770 C.ar      1 <0>        -0.0964
     27 C23         6.0498    3.4230    1.1346 C.ar      1 <0>         0.0772
     28 C24         5.9870    2.4212    0.1786 C.ar      1 <0>        -0.0536
     29 C25         4.9229    1.5449    0.1625 C.ar      1 <0>        -0.6525
     30 S1          4.8489    0.2677   -1.0491 S.o2      1 <0>         2.6898
     31 O4          3.5205    0.2631   -1.5537 O.2       1 <0>        -0.9437
     32 O5          5.9823    0.4385   -1.8891 O.2       1 <0>        -0.9519
     33 N2          5.0594   -1.1713   -0.2571 N.pl3     1 <0>        -0.9899
     34 C26         6.4085   -1.6809    0.0237 C.3       1 <0>         0.1201
     35 C27         6.5202   -1.9813    1.5218 C.3       1 <0>        -0.1355
     36 C28         5.3918   -2.9297    1.9333 C.3       1 <0>        -0.1146
     37 C29         4.0403   -2.2600    1.6744 C.3       1 <0>        -0.1354
     38 C30         3.9005   -1.9598    0.1835 C.3       1 <0>         0.1168
     39 F1          7.0984    4.2746    1.1478 F         1 <0>        -0.1331
     40 C31         0.4600   -1.8246   -1.9980 C.3       1 <0>        -0.1334
     41 C32        -1.8545   -1.0710   -2.5160 C.3       1 <0>        -0.1403
     42 H1          1.1456    2.3352    0.3518 H         1 <0>         0.0728
     43 H2         -0.4478    2.7255   -0.3389 H         1 <0>         0.0651
     44 H3         -0.2864    2.4139    1.4061 H         1 <0>         0.0589
     45 H4         -0.3436    1.0329   -1.8338 H         1 <0>         0.1151
     46 H5         -2.2134   -1.5084   -0.0224 H         1 <0>         0.3479
     47 H6          0.6023   -2.1534    0.5921 H         1 <0>         0.0960
     48 H7         -1.1049   -0.0536    1.9034 H         1 <0>         0.0887
     49 H8         -0.6480   -2.6713    4.1476 H         1 <0>         0.1415
     50 H9         -1.6534   -3.2150    1.9933 H         1 <0>         0.1394
     51 H10         4.3822    0.7649    5.4391 H         1 <0>         0.1453
     52 H11         4.4784   -0.9681    7.1767 H         1 <0>         0.1474
     53 H12         1.6855   -4.1697    3.5650 H         1 <0>         0.0478
     54 H13         2.4613   -4.7914    5.0415 H         1 <0>         0.0528
     55 H14         0.7718   -5.2168    4.6772 H         1 <0>         0.0987
     56 H15         2.3772   -2.8936    8.0900 H         1 <0>         0.3943
     57 H16         2.4307    0.3111    0.1625 H         1 <0>         0.1782
     58 H17         3.1838    2.7954    2.8042 H         1 <0>         0.1467
     59 H18         5.0967    4.3390    2.8184 H         1 <0>         0.1447
     60 H19         6.7757    2.3244   -0.5528 H         1 <0>         0.1548
     61 H20         6.5800   -2.5942   -0.5459 H         1 <0>         0.0802
     62 H21         7.1480   -0.9299   -0.2544 H         1 <0>         0.0886
     63 H22         7.4825   -2.4497    1.7281 H         1 <0>         0.0778
     64 H23         6.4386   -1.0524    2.0862 H         1 <0>         0.0663
     65 H24         5.4592   -3.8486    1.3508 H         1 <0>         0.0667
     66 H25         5.4834   -3.1646    2.9937 H         1 <0>         0.0638
     67 H26         3.2376   -2.9268    1.9893 H         1 <0>         0.0697
     68 H27         3.9821   -1.3285    2.2373 H         1 <0>         0.0659
     69 H28         2.9858   -1.3928    0.0106 H         1 <0>         0.0901
     70 H29         3.8630   -2.8964   -0.3729 H         1 <0>         0.0781
     71 H30         1.2721   -1.7747   -1.2725 H         1 <0>         0.0543
     72 H31         0.2158   -2.8678   -2.1987 H         1 <0>         0.0653
     73 H32         0.7694   -1.3393   -2.9236 H         1 <0>         0.0668
     74 H33        -1.4800   -0.5345   -3.3877 H         1 <0>         0.0656
     75 H34        -2.1221   -2.0880   -2.8026 H         1 <0>         0.0676
     76 H35        -2.7345   -0.5601   -2.1253 H         1 <0>         0.0550
@<TRIPOS>BOND
     1    1    2 1
     2    1   42 1
     3    1   43 1
     4    1   44 1
     5    2    7 1
     6    2    3 2
     7    3    4 1
     8    3   45 1
     9    4    5 1
    10    4   40 1
    11    4   41 1
    12    5    6 1
    13    5   46 1
    14    6   11 1
    15    6    7 1
    16    6   47 1
    17    7    8 1
    18    7   48 1
    19    8   22 1
    20    8    9 2
    21    9   10 1
    22    9   12 1
    23   10   11 2
    24   10   49 1
    25   11   50 1
    26   12   17 ar
    27   12   13 ar
    28   13   14 ar
    29   13   21 1
    30   14   15 ar
    31   14   51 1
    32   15   16 ar
    33   15   52 1
    34   16   17 ar
    35   16   20 1
    36   17   18 1
    37   18   19 1
    38   19   53 1
    39   19   54 1
    40   19   55 1
    41   20   56 1
    42   21   22 1
    43   22   23 2
    44   23   24 1
    45   23   57 1
    46   24   29 ar
    47   24   25 ar
    48   25   26 ar
    49   25   58 1
    50   26   27 ar
    51   26   59 1
    52   27   28 ar
    53   27   39 1
    54   28   29 ar
    55   28   60 1
    56   29   30 1
    57   30   31 2
    58   30   32 2
    59   30   33 1
    60   33   38 1
    61   33   34 1
    62   34   35 1
    63   34   61 1
    64   34   62 1
    65   35   36 1
    66   35   63 1
    67   35   64 1
    68   36   37 1
    69   36   65 1
    70   36   66 1
    71   37   38 1
    72   37   67 1
    73   37   68 1
    74   38   69 1
    75   38   70 1
    76   40   71 1
    77   40   72 1
    78   40   73 1
    79   41   74 1
    80   41   75 1
    81   41   76 1
@<TRIPOS>MOLECULE
CHEMBL234602__7
   77    82     0     0     0
SMALL
USER_CHARGES

@<TRIPOS>ATOM
      1 C1          0.0972    2.0873    0.5424 C.3       1 <0>        -0.1318
      2 C2         -0.1567    0.6129    0.3218 C.2       1 <0>        -0.0817
      3 C3         -0.4189    0.2251   -0.9000 C.2       1 <0>        -0.1751
      4 C4         -0.7812   -1.1841   -1.2588 C.3       1 <0>         0.0993
      5 N1         -1.2768   -1.8998   -0.0736 N.4       1 <0>        -0.4876
      6 C5         -0.3102   -1.7971    1.0057 C.3       1 <0>         0.0474
      7 C6         -0.1319   -0.3383    1.4564 C.3       1 <0>        -0.0075
      8 C7          1.0336   -0.3376    2.3849 C.2       1 <0>        -0.1125
      9 C8          0.9845   -1.2996    3.3916 C.2       1 <0>         0.0045
     10 C9         -0.1147   -2.2727    3.3891 C.2       1 <0>        -0.0460
     11 C10        -0.7469   -2.5547    2.2396 C.2       1 <0>        -0.1982
     12 C11         2.0366   -1.2734    4.4198 C.ar      1 <0>        -0.1373
     13 C12         2.9204   -0.1778    4.4468 C.ar      1 <0>         0.1355
     14 C13         3.9015   -0.0975    5.4174 C.ar      1 <0>        -0.1235
     15 C14         4.0324   -1.1043    6.3570 C.ar      1 <0>        -0.0746
     16 C15         3.1856   -2.2003    6.3278 C.ar      1 <0>         0.0729
     17 C16         2.1890   -2.2924    5.3602 C.ar      1 <0>         0.1316
     18 O1          1.3913   -3.3927    5.3418 O.3       1 <0>        -0.3274
     19 C17         1.8377   -4.5047    4.5631 C.3       1 <0>         0.0368
     20 O2          3.3267   -3.1933    7.2482 O.3       1 <0>        -0.4845
     21 O3          2.8176    0.7873    3.4940 O.3       1 <0>        -0.2271
     22 C18         2.1973    0.4307    2.3339 C.2       1 <0>         0.1267
     23 C19         2.8060    0.7556    1.1670 C.2       1 <0>        -0.1721
     24 C20         3.9247    1.7074    1.1623 C.ar      1 <0>         0.0367
     25 C21         4.0024    2.7066    2.1401 C.ar      1 <0>        -0.0843
     26 C22         5.0552    3.5957    2.1296 C.ar      1 <0>        -0.0971
     27 C23         6.0360    3.5027    1.1540 C.ar      1 <0>         0.0929
     28 C24         5.9656    2.5165    0.1826 C.ar      1 <0>        -0.0543
     29 C25         4.9215    1.6164    0.1837 C.ar      1 <0>        -0.6461
     30 S1          4.8380    0.3590   -1.0479 S.o2      1 <0>         2.6925
     31 O4          3.4989    0.3442   -1.5230 O.2       1 <0>        -0.9548
     32 O5          5.9499    0.5601   -1.9096 O.2       1 <0>        -0.9425
     33 N2          5.0858   -1.0901   -0.2857 N.pl3     1 <0>        -0.9908
     34 C26         6.4478   -1.5734   -0.0209 C.3       1 <0>         0.1187
     35 C27         6.5736   -1.9009    1.4703 C.3       1 <0>        -0.1370
     36 C28         5.4697   -2.8835    1.8676 C.3       1 <0>        -0.1157
     37 C29         4.1017   -2.2407    1.6279 C.3       1 <0>        -0.1380
     38 C30         3.9478   -1.9142    0.1440 C.3       1 <0>         0.1177
     39 F1          7.0652    4.3779    1.1500 F         1 <0>        -0.1263
     40 C31         0.4297   -1.8984   -1.8500 C.3       1 <0>        -0.1728
     41 C32        -1.8969   -1.1495   -2.3097 C.3       1 <0>        -0.1731
     42 H1          1.1639    2.2906    0.4469 H         1 <0>         0.0888
     43 H2         -0.4509    2.6657   -0.2013 H         1 <0>         0.0817
     44 H3         -0.2382    2.3684    1.5407 H         1 <0>         0.0742
     45 H4         -0.3699    0.9585   -1.6875 H         1 <0>         0.1572
     46 H5         -2.1596   -1.4954    0.2141 H         1 <0>         0.4304
     47 H6          0.6556   -2.1920    0.7062 H         1 <0>         0.1485
     48 H7         -1.0249   -0.1084    2.0812 H         1 <0>         0.1212
     49 H8         -0.4383   -2.7475    4.3035 H         1 <0>         0.1625
     50 H9         -1.5317   -3.2854    2.1872 H         1 <0>         0.1586
     51 H10         4.5676    0.7525    5.4467 H         1 <0>         0.1509
     52 H11         4.7979   -1.0350    7.1146 H         1 <0>         0.1538
     53 H12         1.9413   -4.2007    3.5215 H         1 <0>         0.0433
     54 H13         2.8015   -4.8480    4.9391 H         1 <0>         0.0594
     55 H14         1.1107   -5.3137    4.6349 H         1 <0>         0.1019
     56 H15         2.8064   -3.0611    8.0524 H         1 <0>         0.3998
     57 H16         2.4684    0.3145    0.2407 H         1 <0>         0.1735
     58 H17         3.2389    2.7805    2.9004 H         1 <0>         0.1488
     59 H18         5.1162    4.3672    2.8830 H         1 <0>         0.1495
     60 H19         6.7329    2.4505   -0.5746 H         1 <0>         0.1587
     61 H20         6.6379   -2.4709   -0.6095 H         1 <0>         0.0833
     62 H21         7.1682   -0.7999   -0.2872 H         1 <0>         0.0920
     63 H22         7.5477   -2.3505    1.6631 H         1 <0>         0.0825
     64 H23         6.4731   -0.9855    2.0535 H         1 <0>         0.0674
     65 H24         5.5558   -3.7888    1.2666 H         1 <0>         0.0684
     66 H25         5.5719   -3.1373    2.9227 H         1 <0>         0.0662
     67 H26         3.3163   -2.9322    1.9330 H         1 <0>         0.0661
     68 H27         4.0244   -1.3222    2.2097 H         1 <0>         0.0677
     69 H28         3.0193   -1.3655   -0.0136 H         1 <0>         0.0803
     70 H29         3.9296   -2.8401   -0.4308 H         1 <0>         0.0788
     71 H30         1.2636   -1.8394   -1.1505 H         1 <0>         0.0800
     72 H31         0.1816   -2.9440   -2.0322 H         1 <0>         0.0841
     73 H32         0.7094   -1.4222   -2.7897 H         1 <0>         0.1153
     74 H33        -1.5458   -0.6195   -3.1952 H         1 <0>         0.1108
     75 H34        -2.1719   -2.1686   -2.5815 H         1 <0>         0.0852
     76 H35        -2.7664   -0.6356   -1.8998 H         1 <0>         0.0836
     77 H36        -1.4297   -2.8718   -0.3108 H         1 <0>         0.4325
@<TRIPOS>BOND
     1    1    2 1
     2    1   42 1
     3    1   43 1
     4    1   44 1
     5    2    7 1
     6    2    3 2
     7    3    4 1
     8    3   45 1
     9    4    5 1
    10    4   40 1
    11    4   41 1
    12    5    6 1
    13    5   46 1
    14    5   77 1
    15    6   11 1
    16    6    7 1
    17    6   47 1
    18    7    8 1
    19    7   48 1
    20    8   22 1
    21    8    9 2
    22    9   10 1
    23    9   12 1
    24   10   11 2
    25   10   49 1
    26   11   50 1
    27   12   17 ar
    28   12   13 ar
    29   13   14 ar
    30   13   21 1
    31   14   15 ar
    32   14   51 1
    33   15   16 ar
    34   15   52 1
    35   16   17 ar
    36   16   20 1
    37   17   18 1
    38   18   19 1
    39   19   53 1
    40   19   54 1
    41   19   55 1
    42   20   56 1
    43   21   22 1
    44   22   23 2
    45   23   24 1
    46   23   57 1
    47   24   29 ar
    48   24   25 ar
    49   25   26 ar
    50   25   58 1
    51   26   27 ar
    52   26   59 1
    53   27   28 ar
    54   27   39 1
    55   28   29 ar
    56   28   60 1
    57   29   30 1
    58   30   31 2
    59   30   32 2
    60   30   33 1
    61   33   38 1
    62   33   34 1
    63   34   35 1
    64   34   61 1
    65   34   62 1
    66   35   36 1
    67   35   63 1
    68   35   64 1
    69   36   37 1
    70   36   65 1
    71   36   66 1
    72   37   38 1
    73   37   67 1
    74   37   68 1
    75   38   69 1
    76   38   70 1
    77   40   71 1
    78   40   72 1
    79   40   73 1
    80   41   74 1
    81   41   75 1
    82   41   76 1
@<TRIPOS>MOLECULE
CHEMBL49694
   61    65     0     0     0
SMALL
USER_CHARGES

@<TRIPOS>ATOM
      1 C1         -0.0183    1.4995    0.0103 C.3       1 <0>        -0.1207
      2 C2          0.0021   -0.0041    0.0020 C.2       1 <0>        -0.0579
      3 C3         -0.1023   -0.5686   -1.2064 C.2       1 <0>        -0.1804
      4 C4         -0.0540   -2.0558   -1.3806 C.3       1 <0>         0.2115
      5 N1          0.7906   -2.6210   -0.3182 N.pl3     1 <0>        -0.7370
      6 C5          0.6084   -2.1607    0.9835 C.ar      1 <0>         0.2201
      7 C6          0.1303   -0.8427    1.2012 C.ar      1 <0>        -0.0879
      8 C7         -0.2528   -0.4996    2.4909 C.ar      1 <0>        -0.0555
      9 C8          0.0545   -1.3665    3.5561 C.ar      1 <0>        -0.0775
     10 C9          0.7360   -2.5564    3.3311 C.ar      1 <0>        -0.0436
     11 C10         0.9992   -2.9587    2.0394 C.ar      1 <0>        -0.1861
     12 C11        -0.3590   -0.9948    4.9289 C.ar      1 <0>        -0.1321
     13 C12        -0.6432    0.3556    5.1785 C.ar      1 <0>         0.1587
     14 C13        -1.0074    0.7732    6.4458 C.ar      1 <0>        -0.1759
     15 C14        -1.1038   -0.1471    7.4725 C.ar      1 <0>        -0.0500
     16 C15        -0.8415   -1.4836    7.2363 C.ar      1 <0>        -0.2361
     17 C16        -0.4806   -1.9153    5.9661 C.ar      1 <0>         0.1653
     18 O1         -0.2738   -3.2446    5.7700 O.3       1 <0>        -0.3097
     19 C17        -0.4256   -4.0992    6.9052 C.3       1 <0>         0.0241
     20 O2         -0.5580    1.2290    4.1447 O.3       1 <0>        -0.3022
     21 C18        -1.0003    0.7496    2.8663 C.3       1 <0>         0.1425
     22 C19        -2.4987    0.4250    2.9599 C.3       1 <0>        -0.1109
     23 C20        -3.2724    1.6929    3.2147 C.2       1 <0>        -0.1518
     24 C21        -4.2496    2.0363    2.4126 C.2       1 <0>        -0.1215
     25 C22        -4.7256    1.2676    1.1976 C.3       1 <0>        -0.0961
     26 C23        -5.8865    2.0768    0.5831 C.3       1 <0>        -0.1248
     27 C24        -5.6399    3.5197    1.0921 C.3       1 <0>        -0.1232
     28 C25        -5.1192    3.2752    2.5328 C.3       1 <0>        -0.0945
     29 C26         0.5508   -2.3919   -2.7445 C.3       1 <0>        -0.1526
     30 C27        -1.4603   -2.6458   -1.2915 C.3       1 <0>        -0.1567
     31 H1          0.6025    1.8668    0.8275 H         1 <0>         0.0679
     32 H2          0.3697    1.8734   -0.9372 H         1 <0>         0.0712
     33 H3         -1.0420    1.8482    0.1466 H         1 <0>         0.0715
     34 H4         -0.2326    0.0715   -2.0704 H         1 <0>         0.1233
     35 H5          1.4464   -3.3038   -0.5210 H         1 <0>         0.4021
     36 H6          1.0900   -3.1548    4.1531 H         1 <0>         0.1349
     37 H7          1.5065   -3.8941    1.8523 H         1 <0>         0.1257
     38 H8         -1.2131    1.8163    6.6329 H         1 <0>         0.1337
     39 H9         -1.3839    0.1806    8.4619 H         1 <0>         0.1323
     40 H10        -0.9179   -2.1982    8.0442 H         1 <0>         0.1327
     41 H11         0.2822   -3.8038    7.6796 H         1 <0>         0.0576
     42 H12        -1.4418   -4.0146    7.2903 H         1 <0>         0.0573
     43 H13        -0.2331   -5.1311    6.6114 H         1 <0>         0.1013
     44 H14        -0.8661    1.5636    2.1747 H         1 <0>         0.1275
     45 H15        -2.8326   -0.0225    2.0238 H         1 <0>         0.0836
     46 H16        -2.6684   -0.2748    3.7781 H         1 <0>         0.0793
     47 H17        -3.0212    2.3184    4.0585 H         1 <0>         0.1176
     48 H18        -3.9145    1.1727    0.4756 H         1 <0>         0.0720
     49 H19        -5.0768    0.2798    1.4958 H         1 <0>         0.0701
     50 H20        -5.8434    2.0421   -0.5055 H         1 <0>         0.0671
     51 H21        -6.8457    1.7029    0.9414 H         1 <0>         0.0666
     52 H22        -4.8875    4.0220    0.4841 H         1 <0>         0.0689
     53 H23        -6.5693    4.0889    1.1093 H         1 <0>         0.0683
     54 H24        -5.9498    3.0927    3.2147 H         1 <0>         0.0764
     55 H25        -4.5265    4.1248    2.8722 H         1 <0>         0.0701
     56 H26         1.5610   -1.9869   -2.8037 H         1 <0>         0.0632
     57 H27         0.5853   -3.4741   -2.8699 H         1 <0>         0.0632
     58 H28        -0.0629   -1.9543   -3.5319 H         1 <0>         0.0742
     59 H29        -2.0849   -2.2159   -2.0745 H         1 <0>         0.0660
     60 H30        -1.4095   -3.7270   -1.4198 H         1 <0>         0.0598
     61 H31        -1.8898   -2.4154   -0.3165 H         1 <0>         0.0571
@<TRIPOS>BOND
     1    1    2 1
     2    1   31 1
     3    1   32 1
     4    1   33 1
     5    2    7 1
     6    2    3 2
     7    3    4 1
     8    3   34 1
     9    4    5 1
    10    4   29 1
    11    4   30 1
    12    5    6 1
    13    5   35 1
    14    6   11 ar
    15    6    7 ar
    16    7    8 ar
    17    8   21 1
    18    8    9 ar
    19    9   10 ar
    20    9   12 1
    21   10   11 ar
    22   10   36 1
    23   11   37 1
    24   12   17 ar
    25   12   13 ar
    26   13   14 ar
    27   13   20 1
    28   14   15 ar
    29   14   38 1
    30   15   16 ar
    31   15   39 1
    32   16   17 ar
    33   16   40 1
    34   17   18 1
    35   18   19 1
    36   19   41 1
    37   19   42 1
    38   19   43 1
    39   20   21 1
    40   21   22 1
    41   21   44 1
    42   22   23 1
    43   22   45 1
    44   22   46 1
    45   23   24 2
    46   23   47 1
    47   24   28 1
    48   24   25 1
    49   25   26 1
    50   25   48 1
    51   25   49 1
    52   26   27 1
    53   26   50 1
    54   26   51 1
    55   27   28 1
    56   27   52 1
    57   27   53 1
    58   28   54 1
    59   28   55 1
    60   29   56 1
    61   29   57 1
    62   29   58 1
    63   30   59 1
    64   30   60 1
    65   30   61 1
@<TRIPOS>MOLECULE
CHEMBL49694__1
   61    65     0     0     0
SMALL
USER_CHARGES

@<TRIPOS>ATOM
      1 C1         -0.2228    1.7104    0.0106 C.3       1 <0>        -0.1248
      2 C2         -0.1666    0.2098   -0.1011 C.2       1 <0>        -0.0607
      3 C3         -0.3324   -0.2867   -1.3286 C.2       1 <0>        -0.1776
      4 C4         -0.2831   -1.7649   -1.5907 C.3       1 <0>         0.2128
      5 N1          0.5935   -2.3978   -0.6008 N.pl3     1 <0>        -0.7378
      6 C5          0.5044   -1.9989    0.7340 C.ar      1 <0>         0.2199
      7 C6          0.0627   -0.6895    1.0403 C.ar      1 <0>        -0.0895
      8 C7         -0.1789   -0.3796    2.3702 C.ar      1 <0>        -0.0601
      9 C8          0.2180   -1.2758    3.3796 C.ar      1 <0>        -0.0745
     10 C9          0.7834   -2.5015    3.0540 C.ar      1 <0>        -0.0456
     11 C10         0.9228   -2.8601    1.7293 C.ar      1 <0>        -0.1848
     12 C11        -0.0125   -0.8937    4.7935 C.ar      1 <0>        -0.1305
     13 C12        -1.0152    0.0582    5.0449 C.ar      1 <0>         0.1589
     14 C13        -1.3077    0.4404    6.3383 C.ar      1 <0>        -0.1720
     15 C14        -0.6054   -0.1123    7.3951 C.ar      1 <0>        -0.0525
     16 C15         0.3896   -1.0404    7.1593 C.ar      1 <0>        -0.2327
     17 C16         0.6953   -1.4313    5.8598 C.ar      1 <0>         0.1641
     18 O1          1.7070   -2.3178    5.6668 O.3       1 <0>        -0.3100
     19 C17         2.3699   -2.8097    6.8332 C.3       1 <0>         0.0243
     20 O2         -1.6685    0.5954    3.9816 O.3       1 <0>        -0.3006
     21 C18        -0.8522    0.8854    2.8325 C.3       1 <0>         0.1441
     22 C19         0.2001    1.9152    3.2475 C.3       1 <0>        -0.1143
     23 C20        -0.4770    3.2206    3.5770 C.2       1 <0>        -0.1566
     24 C21        -0.2797    3.7849    4.7426 C.2       1 <0>        -0.1124
     25 C22         0.5997    3.2580    5.8574 C.3       1 <0>        -0.1026
     26 C23         0.4981    4.2656    7.0213 C.3       1 <0>        -0.1230
     27 C24        -0.8529    4.9827    6.7708 C.3       1 <0>        -0.1223
     28 C25        -0.8850    5.0917    5.2237 C.3       1 <0>        -0.0943
     29 C26        -1.6894   -2.3559   -1.4860 C.3       1 <0>        -0.1577
     30 C27         0.2706   -2.0169   -2.9949 C.3       1 <0>        -0.1525
     31 H1          0.4867    2.0453    0.7673 H         1 <0>         0.0714
     32 H2          0.0335    2.1562   -0.9505 H         1 <0>         0.0700
     33 H3         -1.2295    2.0160    0.2959 H         1 <0>         0.0716
     34 H4         -0.5040    0.3973   -2.1459 H         1 <0>         0.1234
     35 H5          1.2272   -3.0840   -0.8685 H         1 <0>         0.4018
     36 H6          1.0960   -3.1920    3.8211 H         1 <0>         0.1356
     37 H7          1.3594   -3.8148    1.4694 H         1 <0>         0.1255
     38 H8         -2.0821    1.1692    6.5285 H         1 <0>         0.1329
     39 H9         -0.8370    0.1846    8.4068 H         1 <0>         0.1317
     40 H10         0.9370   -1.4672    7.9874 H         1 <0>         0.1321
     41 H11         2.8113   -1.9759    7.3792 H         1 <0>         0.0573
     42 H12         1.6499   -3.3216    7.4717 H         1 <0>         0.0575
     43 H13         3.1543   -3.5069    6.5385 H         1 <0>         0.1013
     44 H14        -1.5084    1.2838    2.0706 H         1 <0>         0.1255
     45 H15         0.7370    1.5529    4.1242 H         1 <0>         0.0803
     46 H16         0.9028    2.0670    2.4282 H         1 <0>         0.0895
     47 H17        -1.1249    3.6909    2.8521 H         1 <0>         0.1148
     48 H18         0.2455    2.2790    6.1802 H         1 <0>         0.0807
     49 H19         1.6322    3.1868    5.5154 H         1 <0>         0.0667
     50 H20         0.4834    3.7446    7.9786 H         1 <0>         0.0663
     51 H21         1.3224    4.9778    6.9844 H         1 <0>         0.0650
     52 H22        -1.6847    4.3818    7.1382 H         1 <0>         0.0691
     53 H23        -0.8568    5.9725    7.2274 H         1 <0>         0.0674
     54 H24        -0.2844    5.9364    4.8865 H         1 <0>         0.0757
     55 H25        -1.9117    5.1884    4.8706 H         1 <0>         0.0694
     56 H26        -2.3389   -1.8806   -2.2212 H         1 <0>         0.0659
     57 H27        -1.6481   -3.4282   -1.6770 H         1 <0>         0.0596
     58 H28        -2.0838   -2.1800   -0.4852 H         1 <0>         0.0575
     59 H29         1.2756   -1.6013   -3.0692 H         1 <0>         0.0629
     60 H30         0.3061   -3.0897   -3.1844 H         1 <0>         0.0632
     61 H31        -0.3754   -1.5390   -3.7314 H         1 <0>         0.0741
@<TRIPOS>BOND
     1    1    2 1
     2    1   31 1
     3    1   32 1
     4    1   33 1
     5    2    7 1
     6    2    3 2
     7    3    4 1
     8    3   34 1
     9    4    5 1
    10    4   29 1
    11    4   30 1
    12    5    6 1
    13    5   35 1
    14    6   11 ar
    15    6    7 ar
    16    7    8 ar
    17    8   21 1
    18    8    9 ar
    19    9   10 ar
    20    9   12 1
    21   10   11 ar
    22   10   36 1
    23   11   37 1
    24   12   17 ar
    25   12   13 ar
    26   13   14 ar
    27   13   20 1
    28   14   15 ar
    29   14   38 1
    30   15   16 ar
    31   15   39 1
    32   16   17 ar
    33   16   40 1
    34   17   18 1
    35   18   19 1
    36   19   41 1
    37   19   42 1
    38   19   43 1
    39   20   21 1
    40   21   22 1
    41   21   44 1
    42   22   23 1
    43   22   45 1
    44   22   46 1
    45   23   24 2
    46   23   47 1
    47   24   28 1
    48   24   25 1
    49   25   26 1
    50   25   48 1
    51   25   49 1
    52   26   27 1
    53   26   50 1
    54   26   51 1
    55   27   28 1
    56   27   52 1
    57   27   53 1
    58   28   54 1
    59   28   55 1
    60   29   56 1
    61   29   57 1
    62   29   58 1
    63   30   59 1
    64   30   60 1
    65   30   61 1
@<TRIPOS>MOLECULE
CHEMBL231975
   67    72     0     0     0
SMALL
USER_CHARGES

@<TRIPOS>ATOM
      1 C1         -0.3108    1.3365   -0.6064 C.3       1 <0>        -0.1225
      2 C2         -0.2062   -0.1544   -0.3741 C.2       1 <0>        -0.0940
      3 C3         -0.3716   -0.9336   -1.4119 C.2       1 <0>        -0.1471
      4 C4         -0.2114   -2.4234   -1.3596 C.3       1 <0>         0.1437
      5 N1          0.6007   -2.8013   -0.1926 N.3       1 <0>        -0.6663
      6 C5          0.0587   -2.2240    1.0254 C.3       1 <0>         0.1191
      7 C6          0.0983   -0.6884    0.9718 C.3       1 <0>         0.0086
      8 C7         -0.6874   -0.2173    2.1465 C.2       1 <0>        -0.1021
      9 C8         -0.3360   -0.8038    3.3607 C.2       1 <0>        -0.0142
     10 C9          0.6592   -1.8829    3.3634 C.2       1 <0>        -0.1184
     11 C10         0.8554   -2.6086    2.2514 C.2       1 <0>        -0.1225
     12 C11        -0.9753   -0.2907    4.5820 C.ar      1 <0>        -0.1171
     13 C12        -1.7677    0.8693    4.4873 C.ar      1 <0>         0.1254
     14 C13        -2.3610    1.4016    5.6173 C.ar      1 <0>        -0.1281
     15 C14        -2.1930    0.7879    6.8450 C.ar      1 <0>        -0.0888
     16 C15        -1.4338   -0.3663    6.9494 C.ar      1 <0>         0.0591
     17 C16        -0.8267   -0.9126    5.8223 C.ar      1 <0>         0.1242
     18 O1         -0.1101   -2.0599    5.9542 O.3       1 <0>        -0.3202
     19 C17        -0.8386   -3.2885    5.9106 C.3       1 <0>         0.0370
     20 O2         -1.2793   -0.9711    8.1591 O.3       1 <0>        -0.4810
     21 O3         -1.9658    1.4486    3.2733 O.3       1 <0>        -0.2267
     22 C18        -1.7744    0.6566    2.1817 C.2       1 <0>         0.1009
     23 C19        -2.7206    0.6800    1.2105 C.2       1 <0>        -0.1213
     24 C20        -3.7386    1.7384    1.2025 C.ar      1 <0>        -0.0437
     25 C21        -3.6277    2.8274    2.0768 C.ar      1 <0>        -0.1008
     26 C22        -4.5845    3.8204    2.0679 C.ar      1 <0>        -0.1176
     27 C23        -5.6572    3.7482    1.1990 C.ar      1 <0>        -0.1070
     28 C24        -5.7810    2.6696    0.3231 C.ar      1 <0>        -0.0469
     29 C25        -4.8193    1.6662    0.3182 C.ar      1 <0>        -0.0962
     30 C26        -6.9352    2.5968   -0.6070 C.ar      1 <0>        -0.0926
     31 C27        -7.9021    3.6058   -0.6190 C.ar      1 <0>        -0.0699
     32 C28        -8.9594    3.4913   -1.5051 C.ar      1 <0>        -0.1671
     33 C29        -9.0243    2.3924   -2.3424 C.ar      1 <0>         0.0957
     34 N2         -8.0966    1.4556   -2.3078 N.ar      1 <0>        -0.4804
     35 C30        -7.0692    1.5247   -1.4860 C.ar      1 <0>         0.1065
     36 C31         0.5090   -2.8857   -2.6307 C.3       1 <0>        -0.1351
     37 C32        -1.5814   -3.0911   -1.2957 C.3       1 <0>        -0.1754
     38 H1          0.6688    1.7320   -0.8747 H         1 <0>         0.0672
     39 H2         -1.0148    1.5296   -1.4159 H         1 <0>         0.0667
     40 H3         -0.6619    1.8223    0.3040 H         1 <0>         0.0658
     41 H4         -0.6374   -0.4795   -2.3516 H         1 <0>         0.1154
     42 H5          0.6924   -3.8037   -0.1243 H         1 <0>         0.3503
     43 H6         -0.9667   -2.5431    1.1863 H         1 <0>         0.0520
     44 H7          1.1574   -0.4136    1.1835 H         1 <0>         0.0961
     45 H8          1.2553   -2.0865    4.2404 H         1 <0>         0.1399
     46 H9          1.5470   -3.4293    2.2235 H         1 <0>         0.1348
     47 H10        -2.9575    2.2993    5.5441 H         1 <0>         0.1462
     48 H11        -2.6556    1.2102    7.7239 H         1 <0>         0.1472
     49 H12        -0.1621   -4.1193    6.1110 H         1 <0>         0.1002
     50 H13        -1.6258   -3.2710    6.6643 H         1 <0>         0.0444
     51 H14        -1.2835   -3.4122    4.9232 H         1 <0>         0.0482
     52 H15        -1.9553   -1.6337    8.3568 H         1 <0>         0.3854
     53 H16        -2.7255   -0.0797    0.4429 H         1 <0>         0.1422
     54 H17        -2.7923    2.8891    2.7585 H         1 <0>         0.1488
     55 H18        -4.4956    4.6584    2.7434 H         1 <0>         0.1263
     56 H19        -6.4026    4.5298    1.1984 H         1 <0>         0.1235
     57 H20        -4.9089    0.8321   -0.3621 H         1 <0>         0.1262
     58 H21        -7.8266    4.4531    0.0464 H         1 <0>         0.1372
     59 H22        -9.7254    4.2518   -1.5420 H         1 <0>         0.1384
     60 H23        -9.8478    2.2998   -3.0351 H         1 <0>         0.1576
     61 H24        -6.3268    0.7403   -1.4904 H         1 <0>         0.1562
     62 H25         1.4881   -2.4100   -2.6868 H         1 <0>         0.0657
     63 H26         0.6320   -3.9684   -2.6052 H         1 <0>         0.0568
     64 H27        -0.0807   -2.6075   -3.5041 H         1 <0>         0.0624
     65 H28        -2.1582   -2.8225   -2.1808 H         1 <0>         0.0678
     66 H29        -1.4568   -4.1733   -1.2580 H         1 <0>         0.0592
     67 H30        -2.1083   -2.7547   -0.4028 H         1 <0>         0.0547
@<TRIPOS>BOND
     1    1    2 1
     2    1   38 1
     3    1   39 1
     4    1   40 1
     5    2    7 1
     6    2    3 2
     7    3    4 1
     8    3   41 1
     9    4    5 1
    10    4   36 1
    11    4   37 1
    12    5    6 1
    13    5   42 1
    14    6   11 1
    15    6    7 1
    16    6   43 1
    17    7    8 1
    18    7   44 1
    19    8   22 1
    20    8    9 2
    21    9   10 1
    22    9   12 1
    23   10   11 2
    24   10   45 1
    25   11   46 1
    26   12   17 ar
    27   12   13 ar
    28   13   14 ar
    29   13   21 1
    30   14   15 ar
    31   14   47 1
    32   15   16 ar
    33   15   48 1
    34   16   17 ar
    35   16   20 1
    36   17   18 1
    37   18   19 1
    38   19   49 1
    39   19   50 1
    40   19   51 1
    41   20   52 1
    42   21   22 1
    43   22   23 2
    44   23   24 1
    45   23   53 1
    46   24   29 ar
    47   24   25 ar
    48   25   26 ar
    49   25   54 1
    50   26   27 ar
    51   26   55 1
    52   27   28 ar
    53   27   56 1
    54   28   29 ar
    55   28   30 1
    56   29   57 1
    57   30   35 ar
    58   30   31 ar
    59   31   32 ar
    60   31   58 1
    61   32   33 ar
    62   32   59 1
    63   33   34 ar
    64   33   60 1
    65   34   35 ar
    66   35   61 1
    67   36   62 1
    68   36   63 1
    69   36   64 1
    70   37   65 1
    71   37   66 1
    72   37   67 1
@<TRIPOS>MOLECULE
CHEMBL231975__1
   68    73     0     0     0
SMALL
USER_CHARGES

@<TRIPOS>ATOM
      1 C1         -0.3417    1.3215   -0.6153 C.3       1 <0>        -0.1332
      2 C2         -0.2319   -0.1692   -0.3841 C.2       1 <0>        -0.0706
      3 C3         -0.4026   -0.9506   -1.4201 C.2       1 <0>        -0.1900
      4 C4         -0.2375   -2.4391   -1.3670 C.3       1 <0>         0.1011
      5 N1          0.5910   -2.8180   -0.2135 N.4       1 <0>        -0.4884
      6 C5          0.0392   -2.2440    1.0025 C.3       1 <0>         0.0541
      7 C6          0.0830   -0.7084    0.9583 C.3       1 <0>        -0.0102
      8 C7         -0.6906   -0.2364    2.1402 C.2       1 <0>        -0.0965
      9 C8         -0.3438   -0.8357    3.3496 C.2       1 <0>        -0.0138
     10 C9          0.6414   -1.9240    3.3447 C.2       1 <0>        -0.0371
     11 C10         0.8320   -2.6417    2.2278 C.2       1 <0>        -0.2107
     12 C11        -0.9760   -0.3268    4.5768 C.ar      1 <0>        -0.1341
     13 C12        -1.7444    0.8504    4.4965 C.ar      1 <0>         0.1321
     14 C13        -2.3285    1.3799    5.6322 C.ar      1 <0>        -0.1250
     15 C14        -2.1746    0.7462    6.8517 C.ar      1 <0>        -0.0755
     16 C15        -1.4397   -0.4248    6.9421 C.ar      1 <0>         0.0655
     17 C16        -0.8432   -0.9693    5.8083 C.ar      1 <0>         0.1273
     18 O1         -0.1536   -2.1345    5.9246 O.3       1 <0>        -0.3237
     19 C17        -0.9094   -3.3454    5.8558 C.3       1 <0>         0.0341
     20 O2         -1.2994   -1.0488    8.1439 O.3       1 <0>        -0.4783
     21 O3         -1.9269    1.4467    3.2879 O.3       1 <0>        -0.2207
     22 C18        -1.7632    0.6547    2.1908 C.2       1 <0>         0.0761
     23 C19        -2.7232    0.6965    1.2343 C.2       1 <0>        -0.0930
     24 C20        -3.7223    1.7727    1.2433 C.ar      1 <0>        -0.0635
     25 C21        -3.5794    2.8576    2.1182 C.ar      1 <0>        -0.0946
     26 C22        -4.5185    3.8673    2.1253 C.ar      1 <0>        -0.1170
     27 C23        -5.6048    3.8161    1.2719 C.ar      1 <0>        -0.0957
     28 C24        -5.7604    2.7420    0.3957 C.ar      1 <0>        -0.0419
     29 C25        -4.8168    1.7216    0.3747 C.ar      1 <0>        -0.0919
     30 C26        -6.9291    2.6917   -0.5176 C.ar      1 <0>        -0.1010
     31 C27        -7.8781    3.7176   -0.5135 C.ar      1 <0>        -0.0668
     32 C28        -8.9499    3.6239   -1.3843 C.ar      1 <0>        -0.1642
     33 C29        -9.0465    2.5283   -2.2229 C.ar      1 <0>         0.1016
     34 N2         -8.1351    1.5752   -2.2037 N.ar      1 <0>        -0.4810
     35 C30        -7.0948    1.6241   -1.3968 C.ar      1 <0>         0.1067
     36 C31         0.4689   -2.8989   -2.6474 C.3       1 <0>        -0.1739
     37 C32        -1.6037   -3.1124   -1.2903 C.3       1 <0>        -0.1711
     38 H1          0.6351    1.7195   -0.8902 H         1 <0>         0.0836
     39 H2         -1.0516    1.5130   -1.4200 H         1 <0>         0.0829
     40 H3         -0.6878    1.8063    0.2975 H         1 <0>         0.0806
     41 H4         -0.6752   -0.4983   -2.3590 H         1 <0>         0.1547
     42 H5          0.6187   -3.8267   -0.1384 H         1 <0>         0.4323
     43 H6         -0.9865   -2.5629    1.1582 H         1 <0>         0.1485
     44 H7          1.1448   -0.4374    1.1609 H         1 <0>         0.1189
     45 H8          1.2320   -2.1420    4.2220 H         1 <0>         0.1604
     46 H9          1.5182   -3.4668    2.1936 H         1 <0>         0.1561
     47 H10        -2.9066    2.2905    5.5705 H         1 <0>         0.1514
     48 H11        -2.6298    1.1660    7.7357 H         1 <0>         0.1535
     49 H12        -1.6992   -3.3238    6.6066 H         1 <0>         0.0507
     50 H13        -1.3527   -3.4411    4.8647 H         1 <0>         0.0454
     51 H14        -0.2526   -4.1948    6.0437 H         1 <0>         0.1039
     52 H15        -1.9893   -1.6998    8.3320 H         1 <0>         0.3903
     53 H16        -2.7532   -0.0618    0.4658 H         1 <0>         0.1401
     54 H17        -2.7333    2.9029    2.7878 H         1 <0>         0.1490
     55 H18        -4.4050    4.7020    2.8012 H         1 <0>         0.1303
     56 H19        -6.3362    4.6107    1.2838 H         1 <0>         0.1281
     57 H20        -4.9310    0.8909   -0.3058 H         1 <0>         0.1264
     58 H21        -7.7779    4.5619    0.1525 H         1 <0>         0.1383
     59 H22        -9.7028    4.3979   -1.4085 H         1 <0>         0.1415
     60 H23        -9.8814    2.4518   -2.9037 H         1 <0>         0.1605
     61 H24        -6.3666    0.8267   -1.4136 H         1 <0>         0.1534
     62 H25         1.4454   -2.4195   -2.7159 H         1 <0>         0.0838
     63 H26         0.5964   -3.9812   -2.6234 H         1 <0>         0.0851
     64 H27        -0.1328   -2.6231   -3.5134 H         1 <0>         0.1097
     65 H28        -2.1892   -2.8476   -2.1708 H         1 <0>         0.1109
     66 H29        -1.4740   -4.1940   -1.2521 H         1 <0>         0.0858
     67 H30        -2.1243   -2.7770   -0.3934 H         1 <0>         0.0784
     68 H31         1.5348   -2.4796   -0.3567 H         1 <0>         0.4302
@<TRIPOS>BOND
     1    1    2 1
     2    1   38 1
     3    1   39 1
     4    1   40 1
     5    2    7 1
     6    2    3 2
     7    3    4 1
     8    3   41 1
     9    4    5 1
    10    4   36 1
    11    4   37 1
    12    5    6 1
    13    5   42 1
    14    5   68 1
    15    6   11 1
    16    6    7 1
    17    6   43 1
    18    7    8 1
    19    7   44 1
    20    8   22 1
    21    8    9 2
    22    9   10 1
    23    9   12 1
    24   10   11 2
    25   10   45 1
    26   11   46 1
    27   12   17 ar
    28   12   13 ar
    29   13   14 ar
    30   13   21 1
    31   14   15 ar
    32   14   47 1
    33   15   16 ar
    34   15   48 1
    35   16   17 ar
    36   16   20 1
    37   17   18 1
    38   18   19 1
    39   19   49 1
    40   19   50 1
    41   19   51 1
    42   20   52 1
    43   21   22 1
    44   22   23 2
    45   23   24 1
    46   23   53 1
    47   24   29 ar
    48   24   25 ar
    49   25   26 ar
    50   25   54 1
    51   26   27 ar
    52   26   55 1
    53   27   28 ar
    54   27   56 1
    55   28   29 ar
    56   28   30 1
    57   29   57 1
    58   30   35 ar
    59   30   31 ar
    60   31   32 ar
    61   31   58 1
    62   32   33 ar
    63   32   59 1
    64   33   34 ar
    65   33   60 1
    66   34   35 ar
    67   35   61 1
    68   36   62 1
    69   36   63 1
    70   36   64 1
    71   37   65 1
    72   37   66 1
    73   37   67 1
@<TRIPOS>MOLECULE
CHEMBL231975__2
   67    72     0     0     0
SMALL
USER_CHARGES

@<TRIPOS>ATOM
      1 C1          1.3167    2.4873   -1.3731 C.3       1 <0>        -0.1280
      2 C2          1.4640    1.0037   -1.1538 C.2       1 <0>        -0.1069
      3 C3          1.5591    0.2311   -2.1930 C.2       1 <0>        -0.1774
      4 C4          1.7145   -1.2594   -2.0929 C.3       1 <0>         0.1390
      5 N1          1.2965   -1.7225   -0.7638 N.3       1 <0>        -0.6586
      6 C5          1.9803   -0.9547    0.2872 C.3       1 <0>         0.1174
      7 C6          1.5000    0.4888    0.2561 C.3       1 <0>        -0.0285
      8 C7          2.3833    1.3663    1.0991 C.2       1 <0>        -0.1146
      9 C8          3.7189    1.0916    1.2006 C.2       1 <0>         0.0089
     10 C9          4.2809   -0.0815    0.5219 C.2       1 <0>        -0.1518
     11 C10         3.4668   -1.0358    0.0854 C.2       1 <0>        -0.1109
     12 C11         4.5620    1.9965    2.0031 C.ar      1 <0>        -0.1243
     13 C12         3.9551    3.0807    2.6555 C.ar      1 <0>         0.1300
     14 C13         4.7343    3.9422    3.4123 C.ar      1 <0>        -0.1277
     15 C14         6.0964    3.7332    3.5241 C.ar      1 <0>        -0.0864
     16 C15         6.7011    2.6622    2.8838 C.ar      1 <0>         0.0618
     17 C16         5.9372    1.7874    2.1205 C.ar      1 <0>         0.1257
     18 O1          6.5251    0.7349    1.4928 O.3       1 <0>        -0.3177
     19 C17         6.7519   -0.4411    2.2723 C.3       1 <0>         0.0305
     20 O2          8.0426    2.4677    3.0028 O.3       1 <0>        -0.4808
     21 O3          2.6215    3.2822    2.5501 O.3       1 <0>        -0.2125
     22 C18         1.8528    2.4756    1.7894 C.2       1 <0>         0.1254
     23 C19         0.5220    2.7416    1.6843 C.2       1 <0>        -0.1776
     24 C20        -0.0297    3.9702    2.2697 C.ar      1 <0>        -0.0315
     25 C21         0.8215    5.0270    2.6181 C.ar      1 <0>        -0.1085
     26 C22         0.3017    6.1799    3.1677 C.ar      1 <0>        -0.1142
     27 C23        -1.0591    6.3006    3.3786 C.ar      1 <0>        -0.1136
     28 C24        -1.9187    5.2565    3.0371 C.ar      1 <0>        -0.0442
     29 C25        -1.4072    4.0921    2.4762 C.ar      1 <0>        -0.1033
     30 C26        -3.3788    5.3911    3.2666 C.ar      1 <0>        -0.0923
     31 C27        -3.9057    6.5616    3.8192 C.ar      1 <0>        -0.0701
     32 C28        -5.2740    6.6378    4.0134 C.ar      1 <0>        -0.1675
     33 C29        -6.0687    5.5630    3.6577 C.ar      1 <0>         0.0953
     34 N2         -5.5423    4.4709    3.1385 N.ar      1 <0>        -0.4807
     35 C30        -4.2467    4.3551    2.9295 C.ar      1 <0>         0.1065
     36 C31         3.1802   -1.6331   -2.3226 C.3       1 <0>        -0.1480
     37 C32         0.8490   -1.9324   -3.1601 C.3       1 <0>        -0.1393
     38 H1          2.3035    2.9483   -1.4143 H         1 <0>         0.0635
     39 H2          0.7928    2.6656   -2.3122 H         1 <0>         0.0626
     40 H3          0.7471    2.9213   -0.5513 H         1 <0>         0.0742
     41 H4          1.5245    0.6808   -3.1743 H         1 <0>         0.1120
     42 H5          0.2945   -1.6654   -0.6596 H         1 <0>         0.3477
     43 H6          1.7305   -1.3827    1.2580 H         1 <0>         0.0998
     44 H7          0.4921    0.5281    0.6693 H         1 <0>         0.0963
     45 H8          5.3486   -0.1685    0.3842 H         1 <0>         0.1543
     46 H9          3.8865   -1.8852   -0.4329 H         1 <0>         0.1425
     47 H10         4.2756    4.7801    3.9162 H         1 <0>         0.1477
     48 H11         6.6950    4.4105    4.1152 H         1 <0>         0.1487
     49 H12         7.2253   -1.2023    1.6522 H         1 <0>         0.1023
     50 H13         7.4032   -0.2002    3.1124 H         1 <0>         0.0475
     51 H14         5.8001   -0.8179    2.6467 H         1 <0>         0.0530
     52 H15         8.2941    1.9082    3.7503 H         1 <0>         0.3868
     53 H16        -0.1282    2.0490    1.1704 H         1 <0>         0.1483
     54 H17         1.8856    4.9384    2.4564 H         1 <0>         0.1394
     55 H18         0.9611    6.9924    3.4350 H         1 <0>         0.1244
     56 H19        -1.4583    7.2067    3.8099 H         1 <0>         0.1225
     57 H20        -2.0701    3.2835    2.2057 H         1 <0>         0.1258
     58 H21        -3.2615    7.3857    4.0882 H         1 <0>         0.1370
     59 H22        -5.7164    7.5267    4.4384 H         1 <0>         0.1381
     60 H23        -7.1367    5.6189    3.8078 H         1 <0>         0.1574
     61 H24        -3.8534    3.4467    2.4975 H         1 <0>         0.1568
     62 H25         3.8229   -0.8887   -1.8526 H         1 <0>         0.0703
     63 H26         3.3783   -2.6120   -1.8859 H         1 <0>         0.0720
     64 H27         3.3836   -1.6650   -3.3930 H         1 <0>         0.0587
     65 H28         1.1655   -1.5987   -4.1482 H         1 <0>         0.0638
     66 H29         0.9604   -3.0144   -3.0890 H         1 <0>         0.0676
     67 H30        -0.1957   -1.6637   -3.0032 H         1 <0>         0.0555
@<TRIPOS>BOND
     1    1    2 1
     2    1   38 1
     3    1   39 1
     4    1   40 1
     5    2    7 1
     6    2    3 2
     7    3    4 1
     8    3   41 1
     9    4    5 1
    10    4   36 1
    11    4   37 1
    12    5    6 1
    13    5   42 1
    14    6   11 1
    15    6    7 1
    16    6   43 1
    17    7    8 1
    18    7   44 1
    19    8   22 1
    20    8    9 2
    21    9   10 1
    22    9   12 1
    23   10   11 2
    24   10   45 1
    25   11   46 1
    26   12   17 ar
    27   12   13 ar
    28   13   14 ar
    29   13   21 1
    30   14   15 ar
    31   14   47 1
    32   15   16 ar
    33   15   48 1
    34   16   17 ar
    35   16   20 1
    36   17   18 1
    37   18   19 1
    38   19   49 1
    39   19   50 1
    40   19   51 1
    41   20   52 1
    42   21   22 1
    43   22   23 2
    44   23   24 1
    45   23   53 1
    46   24   29 ar
    47   24   25 ar
    48   25   26 ar
    49   25   54 1
    50   26   27 ar
    51   26   55 1
    52   27   28 ar
    53   27   56 1
    54   28   29 ar
    55   28   30 1
    56   29   57 1
    57   30   35 ar
    58   30   31 ar
    59   31   32 ar
    60   31   58 1
    61   32   33 ar
    62   32   59 1
    63   33   34 ar
    64   33   60 1
    65   34   35 ar
    66   35   61 1
    67   36   62 1
    68   36   63 1
    69   36   64 1
    70   37   65 1
    71   37   66 1
    72   37   67 1
@<TRIPOS>MOLECULE
CHEMBL231975__3
   68    73     0     0     0
SMALL
USER_CHARGES

@<TRIPOS>ATOM
      1 C1          1.1693    2.8948   -1.0424 C.3       1 <0>        -0.1375
      2 C2          1.1613    1.3903   -0.9555 C.2       1 <0>        -0.0785
      3 C3          1.1224    0.7035   -2.0576 C.2       1 <0>        -0.1810
      4 C4          1.1143   -0.7979   -2.0829 C.3       1 <0>         0.1026
      5 N1          0.6822   -1.3255   -0.7836 N.4       1 <0>        -0.4965
      6 C5          1.5115   -0.7377    0.2776 C.3       1 <0>         0.0772
      7 C6          1.2049    0.7477    0.4016 C.3       1 <0>        -0.0218
      8 C7          2.2308    1.4364    1.2590 C.2       1 <0>        -0.1017
      9 C8          3.5277    1.0035    1.2495 C.2       1 <0>        -0.0006
     10 C9          3.9087   -0.1567    0.4359 C.2       1 <0>        -0.0646
     11 C10         2.9642   -0.9681   -0.0281 C.2       1 <0>        -0.2141
     12 C11         4.5145    1.7273    2.0714 C.ar      1 <0>        -0.1374
     13 C12         4.0774    2.8082    2.8525 C.ar      1 <0>         0.1370
     14 C13         4.9935    3.5009    3.6290 C.ar      1 <0>        -0.1238
     15 C14         6.3249    3.1282    3.6350 C.ar      1 <0>        -0.0746
     16 C15         6.7620    2.0593    2.8675 C.ar      1 <0>         0.0694
     17 C16         5.8593    1.3524    2.0819 C.ar      1 <0>         0.1255
     18 O1          6.2828    0.3029    1.3294 O.3       1 <0>        -0.3213
     19 C17         6.4111   -0.9583    1.9888 C.3       1 <0>         0.0261
     20 O2          8.0749    1.7023    2.8834 O.3       1 <0>        -0.4784
     21 O3          2.7738    3.1697    2.8506 O.3       1 <0>        -0.2065
     22 C18         1.8740    2.5291    2.0758 C.2       1 <0>         0.1058
     23 C19         0.5799    2.9511    2.0829 C.2       1 <0>        -0.1495
     24 C20         0.2168    4.1941    2.7754 C.ar      1 <0>        -0.0506
     25 C21         1.2072    5.1246    3.1159 C.ar      1 <0>        -0.1015
     26 C22         0.8645    6.2913    3.7663 C.ar      1 <0>        -0.1135
     27 C23        -0.4553    6.5500    4.0863 C.ar      1 <0>        -0.1024
     28 C24        -1.4520    5.6326    3.7540 C.ar      1 <0>        -0.0396
     29 C25        -1.1195    4.4563    3.0924 C.ar      1 <0>        -0.0985
     30 C26        -2.8671    5.9151    4.1009 C.ar      1 <0>        -0.1003
     31 C27        -3.2147    7.0998    4.7557 C.ar      1 <0>        -0.0671
     32 C28        -4.5482    7.3163    5.0572 C.ar      1 <0>        -0.1647
     33 C29        -5.4852    6.3621    4.7042 C.ar      1 <0>         0.1009
     34 N2         -5.1267    5.2531    4.0870 N.ar      1 <0>        -0.4812
     35 C30        -3.8709    5.0064    3.7740 C.ar      1 <0>         0.1067
     36 C31         2.5234   -1.3070   -2.3933 C.3       1 <0>        -0.1837
     37 C32         0.1534   -1.2811   -3.1710 C.3       1 <0>        -0.1725
     38 H1          2.1982    3.2500   -1.0999 H         1 <0>         0.0809
     39 H2          0.6257    3.2102   -1.9330 H         1 <0>         0.0791
     40 H3          0.6897    3.3124   -0.1572 H         1 <0>         0.0853
     41 H4          1.0942    1.2358   -2.9968 H         1 <0>         0.1532
     42 H5         -0.2852   -1.0854   -0.6272 H         1 <0>         0.4311
     43 H6          1.2685   -1.2204    1.2242 H         1 <0>         0.1522
     44 H7          0.2310    0.8638    0.8771 H         1 <0>         0.1263
     45 H8          4.9493   -0.3505    0.2216 H         1 <0>         0.1736
     46 H9          3.2505   -1.8072   -0.6448 H         1 <0>         0.1630
     47 H10         4.6659    4.3353    4.2313 H         1 <0>         0.1530
     48 H11         7.0308    3.6748    4.2427 H         1 <0>         0.1550
     49 H12         7.1316   -0.8715    2.8021 H         1 <0>         0.0546
     50 H13         5.4434   -1.2580    2.3912 H         1 <0>         0.0502
     51 H14         6.7561   -1.7075    1.2762 H         1 <0>         0.1055
     52 H15         8.2971    1.0506    3.5623 H         1 <0>         0.3916
     53 H16        -0.1797    2.3718    1.5791 H         1 <0>         0.1459
     54 H17         2.2401    4.9278    2.8692 H         1 <0>         0.1382
     55 H18         1.6308    7.0062    4.0271 H         1 <0>         0.1285
     56 H19        -0.7155    7.4659    4.5960 H         1 <0>         0.1269
     57 H20        -1.8891    3.7459    2.8288 H         1 <0>         0.1261
     58 H21        -2.4620    7.8278    5.0200 H         1 <0>         0.1382
     59 H22        -4.8536    8.2203    5.5631 H         1 <0>         0.1411
     60 H23        -6.5265    6.5277    4.9379 H         1 <0>         0.1601
     61 H24        -3.6168    4.0890    3.2640 H         1 <0>         0.1540
     62 H25         3.2574   -0.6615   -1.9108 H         1 <0>         0.1033
     63 H26         2.6326   -2.3248   -2.0188 H         1 <0>         0.0836
     64 H27         2.6839   -1.2972   -3.4714 H         1 <0>         0.1020
     65 H28         0.4805   -0.9020   -4.1392 H         1 <0>         0.1081
     66 H29         0.1459   -2.3709   -3.1912 H         1 <0>         0.0845
     67 H30        -0.8508   -0.9148   -2.9578 H         1 <0>         0.0833
     68 H31         0.7865   -2.3291   -0.7759 H         1 <0>         0.4335
@<TRIPOS>BOND
     1    1    2 1
     2    1   38 1
     3    1   39 1
     4    1   40 1
     5    2    7 1
     6    2    3 2
     7    3    4 1
     8    3   41 1
     9    4    5 1
    10    4   36 1
    11    4   37 1
    12    5    6 1
    13    5   42 1
    14    5   68 1
    15    6   11 1
    16    6    7 1
    17    6   43 1
    18    7    8 1
    19    7   44 1
    20    8   22 1
    21    8    9 2
    22    9   10 1
    23    9   12 1
    24   10   11 2
    25   10   45 1
    26   11   46 1
    27   12   17 ar
    28   12   13 ar
    29   13   14 ar
    30   13   21 1
    31   14   15 ar
    32   14   47 1
    33   15   16 ar
    34   15   48 1
    35   16   17 ar
    36   16   20 1
    37   17   18 1
    38   18   19 1
    39   19   49 1
    40   19   50 1
    41   19   51 1
    42   20   52 1
    43   21   22 1
    44   22   23 2
    45   23   24 1
    46   23   53 1
    47   24   29 ar
    48   24   25 ar
    49   25   26 ar
    50   25   54 1
    51   26   27 ar
    52   26   55 1
    53   27   28 ar
    54   27   56 1
    55   28   29 ar
    56   28   30 1
    57   29   57 1
    58   30   35 ar
    59   30   31 ar
    60   31   32 ar
    61   31   58 1
    62   32   33 ar
    63   32   59 1
    64   33   34 ar
    65   33   60 1
    66   34   35 ar
    67   35   61 1
    68   36   62 1
    69   36   63 1
    70   36   64 1
    71   37   65 1
    72   37   66 1
    73   37   67 1
@<TRIPOS>MOLECULE
CHEMBL231975__4
   67    72     0     0     0
SMALL
USER_CHARGES

@<TRIPOS>ATOM
      1 C1         -0.9623    1.6082    0.2858 C.3       1 <0>        -0.1259
      2 C2         -0.5525    0.1776    0.0485 C.2       1 <0>        -0.1019
      3 C3         -0.7391   -0.3320   -1.1311 C.2       1 <0>        -0.1421
      4 C4         -0.3741   -1.7469   -1.4782 C.3       1 <0>         0.1416
      5 N1          0.5853   -2.2751   -0.5003 N.3       1 <0>        -0.6639
      6 C5          0.0847   -2.0807    0.8685 C.3       1 <0>         0.1174
      7 C6          0.0579   -0.5899    1.1855 C.3       1 <0>         0.0132
      8 C7         -0.7127   -0.3301    2.4503 C.2       1 <0>        -0.1091
      9 C8         -1.7759   -1.1258    2.7757 C.2       1 <0>         0.0015
     10 C9         -2.1377   -2.2567    1.9138 C.2       1 <0>        -0.1400
     11 C10        -1.2782   -2.6988    1.0000 C.2       1 <0>        -0.1612
     12 C11        -2.5334   -0.8170    4.0023 C.ar      1 <0>        -0.1248
     13 C12        -2.1128    0.2573    4.8013 C.ar      1 <0>         0.1254
     14 C13        -2.8158    0.5622    5.9565 C.ar      1 <0>        -0.1270
     15 C14        -3.9200   -0.1870    6.3185 C.ar      1 <0>        -0.0886
     16 C15        -4.3385   -1.2514    5.5345 C.ar      1 <0>         0.0676
     17 C16        -3.6471   -1.5729    4.3726 C.ar      1 <0>         0.1231
     18 O1         -4.0530   -2.6159    3.6014 O.3       1 <0>        -0.3235
     19 C17        -3.4941   -3.8974    3.8970 C.3       1 <0>         0.0325
     20 O2         -5.4259   -1.9816    5.9032 O.3       1 <0>        -0.4865
     21 O3         -1.0297    0.9875    4.4494 O.3       1 <0>        -0.2099
     22 C18        -0.3547    0.7288    3.3102 C.2       1 <0>         0.1169
     23 C19         0.7064    1.5149    2.9804 C.2       1 <0>        -0.1677
     24 C20         1.1709    2.5503    3.9125 C.ar      1 <0>        -0.0338
     25 C21         0.6432    2.6177    5.2085 C.ar      1 <0>        -0.1149
     26 C22         1.0806    3.5905    6.0825 C.ar      1 <0>        -0.1151
     27 C23         2.0398    4.5039    5.6869 C.ar      1 <0>        -0.1135
     28 C24         2.5739    4.4492    4.3995 C.ar      1 <0>        -0.0448
     29 C25         2.1458    3.4690    3.5119 C.ar      1 <0>        -0.1018
     30 C26         3.6028    5.4330    3.9798 C.ar      1 <0>        -0.0921
     31 C27         4.0493    6.4158    4.8674 C.ar      1 <0>        -0.0703
     32 C28         5.0103    7.3099    4.4277 C.ar      1 <0>        -0.1678
     33 C29         5.4933    7.2029    3.1361 C.ar      1 <0>         0.0951
     34 N2          5.0522    6.2647    2.3209 N.ar      1 <0>        -0.4805
     35 C30         4.1433    5.3881    2.6968 C.ar      1 <0>         0.1068
     36 C31        -1.6355   -2.6128   -1.4700 C.3       1 <0>        -0.1864
     37 C32         0.2527   -1.7814   -2.8735 C.3       1 <0>        -0.1348
     38 H1         -0.1266    2.2687    0.0543 H         1 <0>         0.0701
     39 H2         -1.8087    1.8548   -0.3553 H         1 <0>         0.0619
     40 H3         -1.2479    1.7360    1.3299 H         1 <0>         0.0657
     41 H4         -1.1764    0.2902   -1.8978 H         1 <0>         0.1137
     42 H5          0.7839   -3.2483   -0.6779 H         1 <0>         0.3490
     43 H6          0.7643   -2.5690    1.5670 H         1 <0>         0.0971
     44 H7          1.0798   -0.2412    1.3350 H         1 <0>         0.1041
     45 H8         -3.1037   -2.7288    2.0157 H         1 <0>         0.1504
     46 H9         -1.5560   -3.5147    0.3492 H         1 <0>         0.1365
     47 H10        -2.4999    1.3884    6.5761 H         1 <0>         0.1474
     48 H11        -4.4613    0.0589    7.2201 H         1 <0>         0.1487
     49 H12        -3.9013   -4.6387    3.2094 H         1 <0>         0.0991
     50 H13        -2.4106   -3.8556    3.7862 H         1 <0>         0.0517
     51 H14        -3.7442   -4.1755    4.9208 H         1 <0>         0.0550
     52 H15        -6.2618   -1.6485    5.5491 H         1 <0>         0.3940
     53 H16         1.2066    1.3773    2.0332 H         1 <0>         0.1506
     54 H17        -0.1070    1.9074    5.5233 H         1 <0>         0.1488
     55 H18         0.6714    3.6393    7.0808 H         1 <0>         0.1243
     56 H19         2.3768    5.2631    6.3772 H         1 <0>         0.1223
     57 H20         2.5607    3.4202    2.5160 H         1 <0>         0.1267
     58 H21         3.6544    6.4765    5.8707 H         1 <0>         0.1368
     59 H22         5.3786    8.0828    5.0860 H         1 <0>         0.1379
     60 H23         6.2431    7.8987    2.7896 H         1 <0>         0.1572
     61 H24         3.8105    4.6310    2.0022 H         1 <0>         0.1573
     62 H25        -2.1610   -2.4982   -2.4181 H         1 <0>         0.0615
     63 H26        -1.3579   -3.6578   -1.3325 H         1 <0>         0.0594
     64 H27        -2.2862   -2.2992   -0.6537 H         1 <0>         0.0752
     65 H28         1.1487   -1.1609   -2.8847 H         1 <0>         0.0655
     66 H29         0.5183   -2.8077   -3.1272 H         1 <0>         0.0569
     67 H30        -0.4624   -1.4003   -3.6025 H         1 <0>         0.0616
@<TRIPOS>BOND
     1    1    2 1
     2    1   38 1
     3    1   39 1
     4    1   40 1
     5    2    7 1
     6    2    3 2
     7    3    4 1
     8    3   41 1
     9    4    5 1
    10    4   36 1
    11    4   37 1
    12    5    6 1
    13    5   42 1
    14    6   11 1
    15    6    7 1
    16    6   43 1
    17    7    8 1
    18    7   44 1
    19    8   22 1
    20    8    9 2
    21    9   10 1
    22    9   12 1
    23   10   11 2
    24   10   45 1
    25   11   46 1
    26   12   17 ar
    27   12   13 ar
    28   13   14 ar
    29   13   21 1
    30   14   15 ar
    31   14   47 1
    32   15   16 ar
    33   15   48 1
    34   16   17 ar
    35   16   20 1
    36   17   18 1
    37   18   19 1
    38   19   49 1
    39   19   50 1
    40   19   51 1
    41   20   52 1
    42   21   22 1
    43   22   23 2
    44   23   24 1
    45   23   53 1
    46   24   29 ar
    47   24   25 ar
    48   25   26 ar
    49   25   54 1
    50   26   27 ar
    51   26   55 1
    52   27   28 ar
    53   27   56 1
    54   28   29 ar
    55   28   30 1
    56   29   57 1
    57   30   35 ar
    58   30   31 ar
    59   31   32 ar
    60   31   58 1
    61   32   33 ar
    62   32   59 1
    63   33   34 ar
    64   33   60 1
    65   34   35 ar
    66   35   61 1
    67   36   62 1
    68   36   63 1
    69   36   64 1
    70   37   65 1
    71   37   66 1
    72   37   67 1
@<TRIPOS>MOLECULE
CHEMBL231975__5
   68    73     0     0     0
SMALL
USER_CHARGES

@<TRIPOS>ATOM
      1 C1         -0.9191    1.2116    0.0810 C.3       1 <0>        -0.1360
      2 C2         -0.4462   -0.1944   -0.1845 C.2       1 <0>        -0.0809
      3 C3         -0.5578   -0.6717   -1.3876 C.2       1 <0>        -0.1793
      4 C4         -0.1209   -2.0599   -1.7580 C.3       1 <0>         0.1025
      5 N1          0.8321   -2.5738   -0.7675 N.4       1 <0>        -0.4972
      6 C5          0.2457   -2.4565    0.5747 C.3       1 <0>         0.0763
      7 C6          0.1400   -0.9831    0.9517 C.3       1 <0>        -0.0225
      8 C7         -0.7072   -0.8108    2.1823 C.2       1 <0>        -0.1012
      9 C8         -1.7523   -1.6615    2.4142 C.2       1 <0>         0.0004
     10 C9         -2.0207   -2.7654    1.4855 C.2       1 <0>        -0.0678
     11 C10        -1.0956   -3.1323    0.6028 C.2       1 <0>        -0.2136
     12 C11        -2.5859   -1.4385    3.6095 C.ar      1 <0>        -0.1392
     13 C12        -2.2542   -0.3847    4.4750 C.ar      1 <0>         0.1319
     14 C13        -3.0297   -0.1602    5.6020 C.ar      1 <0>        -0.1233
     15 C14        -4.1185   -0.9686    5.8711 C.ar      1 <0>        -0.0763
     16 C15        -4.4493   -2.0130    5.0211 C.ar      1 <0>         0.0755
     17 C16        -3.6844   -2.2544    3.8861 C.ar      1 <0>         0.1246
     18 O1         -4.0036   -3.2782    3.0510 O.3       1 <0>        -0.3259
     19 C17        -3.4069   -4.5477    3.3234 C.3       1 <0>         0.0279
     20 O2         -5.5229   -2.8017    5.2982 O.3       1 <0>        -0.4842
     21 O3         -1.1861    0.4035    4.2142 O.3       1 <0>        -0.2040
     22 C18        -0.4398    0.2214    3.1050 C.2       1 <0>         0.1008
     23 C19         0.6050    1.0613    2.8690 C.2       1 <0>        -0.1462
     24 C20         1.0103    2.0344    3.8915 C.ar      1 <0>        -0.0513
     25 C21         0.4469    1.9835    5.1732 C.ar      1 <0>        -0.1079
     26 C22         0.8286    2.8981    6.1321 C.ar      1 <0>        -0.1137
     27 C23         1.7670    3.8691    5.8361 C.ar      1 <0>        -0.1028
     28 C24         2.3360    3.9321    4.5642 C.ar      1 <0>        -0.0397
     29 C25         1.9642    3.0116    3.5914 C.ar      1 <0>        -0.0987
     30 C26         3.3423    4.9774    4.2517 C.ar      1 <0>        -0.1003
     31 C27         3.7324    5.9010    5.2252 C.ar      1 <0>        -0.0671
     32 C28         4.6742    6.8563    4.8839 C.ar      1 <0>        -0.1646
     33 C29         5.1942    6.8659    3.6022 C.ar      1 <0>         0.1009
     34 N2          4.8060    5.9812    2.7044 N.ar      1 <0>        -0.4811
     35 C30         3.9173    5.0500    2.9851 C.ar      1 <0>         0.1066
     36 C31        -1.3431   -2.9789   -1.8095 C.3       1 <0>        -0.1819
     37 C32         0.5455   -2.0309   -3.1349 C.3       1 <0>        -0.1727
     38 H1         -0.0986    1.9089   -0.0883 H         1 <0>         0.0858
     39 H2         -1.7435    1.4506   -0.5907 H         1 <0>         0.0788
     40 H3         -1.2571    1.2922    1.1142 H         1 <0>         0.0794
     41 H4         -0.9831   -0.0423   -2.1553 H         1 <0>         0.1534
     42 H5          1.0328   -3.5429   -0.9641 H         1 <0>         0.4333
     43 H6          0.9038   -2.9469    1.2919 H         1 <0>         0.1517
     44 H7          1.1369   -0.5995    1.1686 H         1 <0>         0.1279
     45 H8         -2.9705   -3.2786    1.5133 H         1 <0>         0.1729
     46 H9         -1.3040   -3.9281   -0.0970 H         1 <0>         0.1653
     47 H10        -2.7825    0.6498    6.2723 H         1 <0>         0.1526
     48 H11        -4.7166   -0.7852    6.7515 H         1 <0>         0.1551
     49 H12        -2.3218   -4.4572    3.2742 H         1 <0>         0.0480
     50 H13        -3.6991   -4.8803    4.3194 H         1 <0>         0.0620
     51 H14        -3.7448   -5.2741    2.5841 H         1 <0>         0.1038
     52 H15        -6.3521   -2.4867    4.9131 H         1 <0>         0.3993
     53 H16         1.1359    1.0121    1.9299 H         1 <0>         0.1456
     54 H17        -0.2872    1.2277    5.4103 H         1 <0>         0.1471
     55 H18         0.3921    2.8557    7.1191 H         1 <0>         0.1285
     56 H19         2.0603    4.5819    6.5925 H         1 <0>         0.1269
     57 H20         2.4064    3.0540    2.6070 H         1 <0>         0.1260
     58 H21         3.3096    5.8705    6.2185 H         1 <0>         0.1382
     59 H22         4.9993    7.5863    5.6103 H         1 <0>         0.1412
     60 H23         5.9292    7.6098    3.3323 H         1 <0>         0.1602
     61 H24         3.6282    4.3397    2.2246 H         1 <0>         0.1539
     62 H25        -1.8138   -2.9028   -2.7897 H         1 <0>         0.1019
     63 H26        -1.0310   -4.0086   -1.6352 H         1 <0>         0.0838
     64 H27        -2.0552   -2.6799   -1.0403 H         1 <0>         0.1024
     65 H28         1.4130   -1.3716   -3.1049 H         1 <0>         0.0832
     66 H29         0.8635   -3.0377   -3.4059 H         1 <0>         0.0846
     67 H30        -0.1652   -1.6628   -3.8749 H         1 <0>         0.1083
     68 H31         1.6853   -2.0368   -0.8106 H         1 <0>         0.4310
@<TRIPOS>BOND
     1    1    2 1
     2    1   38 1
     3    1   39 1
     4    1   40 1
     5    2    7 1
     6    2    3 2
     7    3    4 1
     8    3   41 1
     9    4    5 1
    10    4   36 1
    11    4   37 1
    12    5    6 1
    13    5   42 1
    14    5   68 1
    15    6   11 1
    16    6    7 1
    17    6   43 1
    18    7    8 1
    19    7   44 1
    20    8   22 1
    21    8    9 2
    22    9   10 1
    23    9   12 1
    24   10   11 2
    25   10   45 1
    26   11   46 1
    27   12   17 ar
    28   12   13 ar
    29   13   14 ar
    30   13   21 1
    31   14   15 ar
    32   14   47 1
    33   15   16 ar
    34   15   48 1
    35   16   17 ar
    36   16   20 1
    37   17   18 1
    38   18   19 1
    39   19   49 1
    40   19   50 1
    41   19   51 1
    42   20   52 1
    43   21   22 1
    44   22   23 2
    45   23   24 1
    46   23   53 1
    47   24   29 ar
    48   24   25 ar
    49   25   26 ar
    50   25   54 1
    51   26   27 ar
    52   26   55 1
    53   27   28 ar
    54   27   56 1
    55   28   29 ar
    56   28   30 1
    57   29   57 1
    58   30   35 ar
    59   30   31 ar
    60   31   32 ar
    61   31   58 1
    62   32   33 ar
    63   32   59 1
    64   33   34 ar
    65   33   60 1
    66   34   35 ar
    67   35   61 1
    68   36   62 1
    69   36   63 1
    70   36   64 1
    71   37   65 1
    72   37   66 1
    73   37   67 1
@<TRIPOS>MOLECULE
CHEMBL231975__6
   67    72     0     0     0
SMALL
USER_CHARGES

@<TRIPOS>ATOM
      1 C1          0.3143    1.3974   -0.6347 C.3       1 <0>        -0.1221
      2 C2          0.2437   -0.0969   -0.4112 C.2       1 <0>        -0.1013
      3 C3          0.4140   -0.8656   -1.4560 C.2       1 <0>        -0.1806
      4 C4          0.2854   -2.3587   -1.4122 C.3       1 <0>         0.1429
      5 N1         -0.5045   -2.7621   -0.2383 N.3       1 <0>        -0.6605
      6 C5          0.0392   -2.1806    0.9768 C.3       1 <0>         0.1207
      7 C6         -0.0339   -0.6459    0.9345 C.3       1 <0>        -0.0331
      8 C7          0.7559   -0.1663    2.1030 C.2       1 <0>        -0.0975
      9 C8          0.4323   -0.7686    3.3171 C.2       1 <0>        -0.0159
     10 C9         -0.5400   -1.8686    3.3245 C.2       1 <0>        -0.1202
     11 C10        -0.7342   -2.5902    2.2098 C.2       1 <0>        -0.1218
     12 C11         1.0761   -0.2509    4.5342 C.ar      1 <0>        -0.1193
     13 C12         1.8413    0.9270    4.4384 C.ar      1 <0>         0.1238
     14 C13         2.4369    1.4638    5.5650 C.ar      1 <0>        -0.1284
     15 C14         2.2987    0.8368    6.7897 C.ar      1 <0>        -0.0903
     16 C15         1.5667   -0.3348    6.8944 C.ar      1 <0>         0.0636
     17 C16         0.9572   -0.8859    5.7709 C.ar      1 <0>         0.1243
     18 O1          0.2685   -2.0501    5.9024 O.3       1 <0>        -0.3258
     19 C17         1.0049   -3.2626    5.7303 C.3       1 <0>         0.0400
     20 O2          1.4422   -0.9529    8.1008 O.3       1 <0>        -0.4871
     21 O3          2.0107    1.5196    3.2263 O.3       1 <0>        -0.2273
     22 C18         1.8241    0.7309    2.1315 C.2       1 <0>         0.1015
     23 C19         2.7582    0.7813    1.1498 C.2       1 <0>        -0.1238
     24 C20         3.7501    1.8642    1.1350 C.ar      1 <0>        -0.0446
     25 C21         3.6318    2.9384    2.0265 C.ar      1 <0>        -0.1014
     26 C22         4.5641    3.9544    2.0112 C.ar      1 <0>        -0.1178
     27 C23         5.6188    3.9204    1.1182 C.ar      1 <0>        -0.1069
     28 C24         5.7491    2.8574    0.2245 C.ar      1 <0>        -0.0465
     29 C25         4.8194    1.8243    0.2350 C.ar      1 <0>        -0.0965
     30 C26         6.8829    2.8266   -0.7327 C.ar      1 <0>        -0.0929
     31 C27         7.8302    3.8540   -0.7447 C.ar      1 <0>        -0.0698
     32 C28         8.8688    3.7789   -1.6566 C.ar      1 <0>        -0.1672
     33 C29         8.9351    2.6994   -2.5188 C.ar      1 <0>         0.0959
     34 N2          8.0257    1.7449   -2.4843 N.ar      1 <0>        -0.4802
     35 C30         7.0232    1.7703   -1.6298 C.ar      1 <0>         0.1068
     36 C31         1.6697   -2.9981   -1.3697 C.3       1 <0>        -0.1336
     37 C32        -0.4402   -2.8275   -2.6779 C.3       1 <0>        -0.1402
     38 H1          1.3390    1.7387   -0.4877 H         1 <0>         0.0751
     39 H2         -0.0031    1.6280   -1.6517 H         1 <0>         0.0641
     40 H3         -0.3421    1.9022    0.0741 H         1 <0>         0.0608
     41 H4          0.6593   -0.3995   -2.3956 H         1 <0>         0.1138
     42 H5         -1.4791   -2.5311   -0.3612 H         1 <0>         0.3481
     43 H6          1.0729   -2.4788    1.1238 H         1 <0>         0.0948
     44 H7         -1.0959   -0.3953    1.1605 H         1 <0>         0.0880
     45 H8         -1.1210   -2.0909    4.2070 H         1 <0>         0.1394
     46 H9         -1.4091   -3.4246    2.1840 H         1 <0>         0.1377
     47 H10         3.0114    2.3755    5.4915 H         1 <0>         0.1454
     48 H11         2.7627    1.2627    7.6663 H         1 <0>         0.1470
     49 H12         0.3378   -4.1146    5.8613 H         1 <0>         0.0983
     50 H13         1.4343   -3.2879    4.7288 H         1 <0>         0.0468
     51 H14         1.8044   -3.3101    6.4697 H         1 <0>         0.0523
     52 H15         0.6771   -0.6611    8.6151 H         1 <0>         0.3932
     53 H16         2.7728    0.0252    0.3788 H         1 <0>         0.1425
     54 H17         2.8096    2.9710    2.7261 H         1 <0>         0.1492
     55 H18         4.4695    4.7808    2.7000 H         1 <0>         0.1261
     56 H19         6.3445    4.7202    1.1123 H         1 <0>         0.1236
     57 H20         4.9198    0.9970   -0.4520 H         1 <0>         0.1265
     58 H21         7.7537    4.6857   -0.0600 H         1 <0>         0.1370
     59 H22         9.6189    4.5549   -1.6947 H         1 <0>         0.1384
     60 H23         9.7441    2.6374   -3.2317 H         1 <0>         0.1577
     61 H24         6.3008    0.9675   -1.6284 H         1 <0>         0.1564
     62 H25         2.2004   -2.6568   -0.4809 H         1 <0>         0.0523
     63 H26         1.5681   -4.0829   -1.3380 H         1 <0>         0.0674
     64 H27         2.2298   -2.7114   -2.2597 H         1 <0>         0.0632
     65 H28         0.1332   -2.5311   -3.5563 H         1 <0>         0.0648
     66 H29        -0.5403   -3.9127   -2.6586 H         1 <0>         0.0679
     67 H30        -1.4296   -2.3720   -2.7193 H         1 <0>         0.0556
@<TRIPOS>BOND
     1    1    2 1
     2    1   38 1
     3    1   39 1
     4    1   40 1
     5    2    7 1
     6    2    3 2
     7    3    4 1
     8    3   41 1
     9    4    5 1
    10    4   36 1
    11    4   37 1
    12    5    6 1
    13    5   42 1
    14    6   11 1
    15    6    7 1
    16    6   43 1
    17    7    8 1
    18    7   44 1
    19    8   22 1
    20    8    9 2
    21    9   10 1
    22    9   12 1
    23   10   11 2
    24   10   45 1
    25   11   46 1
    26   12   17 ar
    27   12   13 ar
    28   13   14 ar
    29   13   21 1
    30   14   15 ar
    31   14   47 1
    32   15   16 ar
    33   15   48 1
    34   16   17 ar
    35   16   20 1
    36   17   18 1
    37   18   19 1
    38   19   49 1
    39   19   50 1
    40   19   51 1
    41   20   52 1
    42   21   22 1
    43   22   23 2
    44   23   24 1
    45   23   53 1
    46   24   29 ar
    47   24   25 ar
    48   25   26 ar
    49   25   54 1
    50   26   27 ar
    51   26   55 1
    52   27   28 ar
    53   27   56 1
    54   28   29 ar
    55   28   30 1
    56   29   57 1
    57   30   35 ar
    58   30   31 ar
    59   31   32 ar
    60   31   58 1
    61   32   33 ar
    62   32   59 1
    63   33   34 ar
    64   33   60 1
    65   34   35 ar
    66   35   61 1
    67   36   62 1
    68   36   63 1
    69   36   64 1
    70   37   65 1
    71   37   66 1
    72   37   67 1
@<TRIPOS>MOLECULE
CHEMBL231975__7
   68    73     0     0     0
SMALL
USER_CHARGES

@<TRIPOS>ATOM
      1 C1          0.3151    1.4048   -0.6345 C.3       1 <0>        -0.1325
      2 C2          0.2428   -0.0899   -0.4144 C.2       1 <0>        -0.0712
      3 C3          0.4125   -0.8587   -1.4595 C.2       1 <0>        -0.1898
      4 C4          0.2811   -2.3507   -1.4161 C.3       1 <0>         0.1010
      5 N1         -0.5224   -2.7565   -0.2538 N.4       1 <0>        -0.4876
      6 C5          0.0357   -2.1807    0.9571 C.3       1 <0>         0.0520
      7 C6         -0.0371   -0.6456    0.9297 C.3       1 <0>        -0.0090
      8 C7          0.7641   -0.1769    2.0954 C.2       1 <0>        -0.0963
      9 C8          0.4606   -0.7961    3.3064 C.2       1 <0>        -0.0147
     10 C9         -0.5101   -1.8976    3.3166 C.2       1 <0>        -0.0384
     11 C10        -0.7215   -2.6045    2.1958 C.2       1 <0>        -0.2094
     12 C11         1.1222   -0.2932    4.5203 C.ar      1 <0>        -0.1360
     13 C12         1.8692    0.8971    4.4323 C.ar      1 <0>         0.1305
     14 C13         2.4788    1.4221    5.5565 C.ar      1 <0>        -0.1250
     15 C14         2.3725    0.7706    6.7719 C.ar      1 <0>        -0.0771
     16 C15         1.6608   -0.4140    6.8685 C.ar      1 <0>         0.0699
     17 C16         1.0385   -0.9536    5.7465 C.ar      1 <0>         0.1270
     18 O1          0.3728   -2.1324    5.8675 O.3       1 <0>        -0.3284
     19 C17         1.1270   -3.3278    5.6576 C.3       1 <0>         0.0373
     20 O2          1.5692   -1.0565    8.0653 O.3       1 <0>        -0.4852
     21 O3          2.0071    1.5114    3.2268 O.3       1 <0>        -0.2209
     22 C18         1.8247    0.7285    2.1257 C.2       1 <0>         0.0785
     23 C19         2.7576    0.7937    1.1439 C.2       1 <0>        -0.0963
     24 C20         3.7391    1.8861    1.1349 C.ar      1 <0>        -0.0642
     25 C21         3.6110    2.9539    2.0327 C.ar      1 <0>        -0.0947
     26 C22         4.5334    3.9788    2.0229 C.ar      1 <0>        -0.1171
     27 C23         5.5880    3.9601    1.1292 C.ar      1 <0>        -0.0956
     28 C24         5.7280    2.9036    0.2293 C.ar      1 <0>        -0.0418
     29 C25         4.8082    1.8616    0.2343 C.ar      1 <0>        -0.0923
     30 C26         6.8616    2.8892   -0.7286 C.ar      1 <0>        -0.1011
     31 C27         7.7990    3.9256   -0.7350 C.ar      1 <0>        -0.0668
     32 C28         8.8378    3.8657   -1.6478 C.ar      1 <0>        -0.1642
     33 C29         8.9141    2.7919   -2.5163 C.ar      1 <0>         0.1017
     34 N2          8.0138    1.8285   -2.4868 N.ar      1 <0>        -0.4809
     35 C30         7.0115    1.8395   -1.6318 C.ar      1 <0>         0.1068
     36 C31         1.6639   -2.9935   -1.3631 C.3       1 <0>        -0.1716
     37 C32        -0.4319   -2.8173   -2.6903 C.3       1 <0>        -0.1736
     38 H1          1.3399    1.7449   -0.4854 H         1 <0>         0.0910
     39 H2         -0.0008    1.6381   -1.6513 H         1 <0>         0.0804
     40 H3         -0.3417    1.9087    0.0746 H         1 <0>         0.0759
     41 H4          0.6577   -0.3928   -2.3993 H         1 <0>         0.1549
     42 H5         -1.4753   -2.4370   -0.3808 H         1 <0>         0.4302
     43 H6          1.0708   -2.4794    1.0923 H         1 <0>         0.1482
     44 H7         -1.0968   -0.3924    1.1610 H         1 <0>         0.1196
     45 H8         -1.0726   -2.1341    4.2074 H         1 <0>         0.1601
     46 H9         -1.3991   -3.4366    2.1682 H         1 <0>         0.1563
     47 H10         3.0405    2.3425    5.4892 H         1 <0>         0.1509
     48 H11         2.8462    1.1877    7.6475 H         1 <0>         0.1532
     49 H12         1.5378   -3.3257    4.6480 H         1 <0>         0.0421
     50 H13         1.9410   -3.3756    6.3810 H         1 <0>         0.0589
     51 H14         0.4775   -4.1941    5.7838 H         1 <0>         0.1014
     52 H15         0.8098   -0.7863    8.5996 H         1 <0>         0.3986
     53 H16         2.7789    0.0423    0.3685 H         1 <0>         0.1400
     54 H17         2.7889    2.9746    2.7328 H         1 <0>         0.1497
     55 H18         4.4314    4.8004    2.7165 H         1 <0>         0.1303
     56 H19         6.3061    4.7668    1.1276 H         1 <0>         0.1282
     57 H20         4.9162    1.0393   -0.4575 H         1 <0>         0.1265
     58 H21         7.7149    4.7526   -0.0454 H         1 <0>         0.1383
     59 H22         9.5805    4.6490   -1.6817 H         1 <0>         0.1415
     60 H23         9.7232    2.7418   -3.2298 H         1 <0>         0.1605
     61 H24         6.2968    1.0298   -1.6347 H         1 <0>         0.1534
     62 H25         2.1889   -2.6531   -0.4706 H         1 <0>         0.0783
     63 H26         1.5595   -4.0780   -1.3318 H         1 <0>         0.0860
     64 H27         2.2313   -2.7085   -2.2492 H         1 <0>         0.1110
     65 H28         0.1517   -2.5218   -3.5622 H         1 <0>         0.1097
     66 H29        -0.5347   -3.9023   -2.6726 H         1 <0>         0.0852
     67 H30        -1.4198   -2.3596   -2.7422 H         1 <0>         0.0839
     68 H31        -0.5277   -3.7664   -0.1868 H         1 <0>         0.4326
@<TRIPOS>BOND
     1    1    2 1
     2    1   38 1
     3    1   39 1
     4    1   40 1
     5    2    7 1
     6    2    3 2
     7    3    4 1
     8    3   41 1
     9    4    5 1
    10    4   36 1
    11    4   37 1
    12    5    6 1
    13    5   42 1
    14    5   68 1
    15    6   11 1
    16    6    7 1
    17    6   43 1
    18    7    8 1
    19    7   44 1
    20    8   22 1
    21    8    9 2
    22    9   10 1
    23    9   12 1
    24   10   11 2
    25   10   45 1
    26   11   46 1
    27   12   17 ar
    28   12   13 ar
    29   13   14 ar
    30   13   21 1
    31   14   15 ar
    32   14   47 1
    33   15   16 ar
    34   15   48 1
    35   16   17 ar
    36   16   20 1
    37   17   18 1
    38   18   19 1
    39   19   49 1
    40   19   50 1
    41   19   51 1
    42   20   52 1
    43   21   22 1
    44   22   23 2
    45   23   24 1
    46   23   53 1
    47   24   29 ar
    48   24   25 ar
    49   25   26 ar
    50   25   54 1
    51   26   27 ar
    52   26   55 1
    53   27   28 ar
    54   27   56 1
    55   28   29 ar
    56   28   30 1
    57   29   57 1
    58   30   35 ar
    59   30   31 ar
    60   31   32 ar
    61   31   58 1
    62   32   33 ar
    63   32   59 1
    64   33   34 ar
    65   33   60 1
    66   34   35 ar
    67   35   61 1
    68   36   62 1
    69   36   63 1
    70   36   64 1
    71   37   65 1
    72   37   66 1
    73   37   67 1
@<TRIPOS>MOLECULE
CHEMBL231974
   65    70     0     0     0
SMALL
USER_CHARGES

@<TRIPOS>ATOM
      1 C1         -0.3084    1.3389   -0.6057 C.3       1 <0>        -0.1227
      2 C2         -0.2038   -0.1522   -0.3740 C.2       1 <0>        -0.0930
      3 C3         -0.3686   -0.9310   -1.4123 C.2       1 <0>        -0.1482
      4 C4         -0.2086   -2.4208   -1.3605 C.3       1 <0>         0.1440
      5 N1          0.6026   -2.7995   -0.1933 N.3       1 <0>        -0.6664
      6 C5          0.0601   -2.2227    1.0246 C.3       1 <0>         0.1195
      7 C6          0.1001   -0.6871    0.9716 C.3       1 <0>         0.0083
      8 C7         -0.6863   -0.2165    2.1462 C.2       1 <0>        -0.1009
      9 C8         -0.3352   -0.8035    3.3601 C.2       1 <0>        -0.0157
     10 C9          0.6601   -1.8826    3.3630 C.2       1 <0>        -0.1175
     11 C10         0.8565   -2.6078    2.2509 C.2       1 <0>        -0.1238
     12 C11        -0.9744   -0.2903    4.5817 C.ar      1 <0>        -0.1171
     13 C12        -1.7675    0.8690    4.4865 C.ar      1 <0>         0.1257
     14 C13        -2.3610    1.4011    5.6163 C.ar      1 <0>        -0.1281
     15 C14        -2.1920    0.7880    6.8440 C.ar      1 <0>        -0.0889
     16 C15        -1.4308   -0.3648    6.9490 C.ar      1 <0>         0.0587
     17 C16        -0.8241   -0.9116    5.8220 C.ar      1 <0>         0.1239
     18 O1         -0.1064   -2.0581    5.9539 O.3       1 <0>        -0.3201
     19 C17        -0.8339   -3.2873    5.9121 C.3       1 <0>         0.0370
     20 O2         -1.2750   -0.9688    8.1589 O.3       1 <0>        -0.4811
     21 O3         -1.9658    1.4484    3.2726 O.3       1 <0>        -0.2260
     22 C18        -1.7734    0.6571    2.1806 C.2       1 <0>         0.0979
     23 C19        -2.7189    0.6815    1.2086 C.2       1 <0>        -0.1184
     24 C20        -3.7367    1.7401    1.2007 C.ar      1 <0>        -0.0453
     25 C21        -3.6260    2.8285    2.0759 C.ar      1 <0>        -0.1046
     26 C22        -4.5824    3.8220    2.0670 C.ar      1 <0>        -0.1180
     27 C23        -5.6541    3.7512    1.1968 C.ar      1 <0>        -0.1087
     28 C24        -5.7776    2.6732    0.3199 C.ar      1 <0>        -0.0307
     29 C25        -4.8168    1.6687    0.3158 C.ar      1 <0>        -0.0982
     30 C26        -6.9306    2.6018   -0.6114 C.2       1 <0>        -0.0799
     31 C27        -7.8955    3.6043   -0.6274 C.2       1 <0>        -0.1507
     32 C28        -8.9314    3.5043   -1.4907 C.2       1 <0>        -0.1693
     33 S1         -8.5796    1.9675   -2.3272 S.3       1 <0>         0.0435
     34 C29        -7.0659    1.5527   -1.4770 C.2       1 <0>        -0.1690
     35 C30         0.5124   -2.8828   -2.6313 C.3       1 <0>        -0.1351
     36 C31        -1.5790   -3.0881   -1.2979 C.3       1 <0>        -0.1752
     37 H1          0.6713    1.7346   -0.8734 H         1 <0>         0.0673
     38 H2         -1.0120    1.5323   -1.4155 H         1 <0>         0.0666
     39 H3         -0.6600    1.8243    0.3048 H         1 <0>         0.0662
     40 H4         -0.6331   -0.4761   -2.3520 H         1 <0>         0.1151
     41 H5          0.6948   -3.8018   -0.1254 H         1 <0>         0.3503
     42 H6         -0.9653   -2.5422    1.1854 H         1 <0>         0.0518
     43 H7          1.1591   -0.4124    1.1842 H         1 <0>         0.0961
     44 H8          1.2561   -2.0869    4.2399 H         1 <0>         0.1399
     45 H9          1.5483   -3.4283    2.2227 H         1 <0>         0.1346
     46 H10        -2.9581    2.2983    5.5425 H         1 <0>         0.1463
     47 H11        -2.6548    1.2099    7.7230 H         1 <0>         0.1471
     48 H12        -1.6204   -3.2699    6.6666 H         1 <0>         0.0444
     49 H13        -1.2798   -3.4123    4.9254 H         1 <0>         0.0480
     50 H14        -0.1565   -4.1174    6.1125 H         1 <0>         0.1000
     51 H15        -1.9498   -1.6324    8.3570 H         1 <0>         0.3852
     52 H16        -2.7232   -0.0775    0.4403 H         1 <0>         0.1409
     53 H17        -2.7913    2.8894    2.7585 H         1 <0>         0.1475
     54 H18        -4.4939    4.6593    2.7434 H         1 <0>         0.1247
     55 H19        -6.3989    4.5333    1.1959 H         1 <0>         0.1228
     56 H20        -4.9065    0.8347   -0.3646 H         1 <0>         0.1226
     57 H21        -7.8183    4.4498    0.0402 H         1 <0>         0.1373
     58 H22        -9.7601    4.1814   -1.6366 H         1 <0>         0.1879
     59 H23        -6.4242    0.6944   -1.6107 H         1 <0>         0.1859
     60 H24         1.4917   -2.4072   -2.6867 H         1 <0>         0.0658
     61 H25         0.6352   -3.9655   -2.6062 H         1 <0>         0.0568
     62 H26        -0.0767   -2.6041   -3.5050 H         1 <0>         0.0621
     63 H27        -2.1549   -2.8189   -2.1833 H         1 <0>         0.0672
     64 H28        -1.4548   -4.1703   -1.2605 H         1 <0>         0.0591
     65 H29        -2.1064   -2.7518   -0.4053 H         1 <0>         0.0547
@<TRIPOS>BOND
     1    1    2 1
     2    1   37 1
     3    1   38 1
     4    1   39 1
     5    2    7 1
     6    2    3 2
     7    3    4 1
     8    3   40 1
     9    4    5 1
    10    4   35 1
    11    4   36 1
    12    5    6 1
    13    5   41 1
    14    6   11 1
    15    6    7 1
    16    6   42 1
    17    7    8 1
    18    7   43 1
    19    8   22 1
    20    8    9 2
    21    9   10 1
    22    9   12 1
    23   10   11 2
    24   10   44 1
    25   11   45 1
    26   12   17 ar
    27   12   13 ar
    28   13   14 ar
    29   13   21 1
    30   14   15 ar
    31   14   46 1
    32   15   16 ar
    33   15   47 1
    34   16   17 ar
    35   16   20 1
    36   17   18 1
    37   18   19 1
    38   19   48 1
    39   19   49 1
    40   19   50 1
    41   20   51 1
    42   21   22 1
    43   22   23 2
    44   23   24 1
    45   23   52 1
    46   24   29 ar
    47   24   25 ar
    48   25   26 ar
    49   25   53 1
    50   26   27 ar
    51   26   54 1
    52   27   28 ar
    53   27   55 1
    54   28   29 ar
    55   28   30 1
    56   29   56 1
    57   30   34 2
    58   30   31 1
    59   31   32 2
    60   31   57 1
    61   32   33 1
    62   32   58 1
    63   33   34 1
    64   34   59 1
    65   35   60 1
    66   35   61 1
    67   35   62 1
    68   36   63 1
    69   36   64 1
    70   36   65 1
@<TRIPOS>MOLECULE
CHEMBL231974__1
   66    71     0     0     0
SMALL
USER_CHARGES

@<TRIPOS>ATOM
      1 C1         -0.3428    1.3206   -0.6152 C.3       1 <0>        -0.1335
      2 C2         -0.2329   -0.1703   -0.3839 C.2       1 <0>        -0.0698
      3 C3         -0.4019   -0.9512   -1.4208 C.2       1 <0>        -0.1908
      4 C4         -0.2356   -2.4393   -1.3674 C.3       1 <0>         0.1011
      5 N1          0.5923   -2.8183   -0.2132 N.4       1 <0>        -0.4880
      6 C5          0.0392   -2.2447    1.0012 C.3       1 <0>         0.0537
      7 C6          0.0820   -0.7086    0.9585 C.3       1 <0>        -0.0100
      8 C7         -0.6924   -0.2379    2.1405 C.2       1 <0>        -0.0948
      9 C8         -0.3467   -0.8382    3.3497 C.2       1 <0>        -0.0155
     10 C9          0.6379   -1.9267    3.3454 C.2       1 <0>        -0.0361
     11 C10         0.8301   -2.6429    2.2279 C.2       1 <0>        -0.2119
     12 C11        -0.9796   -0.3297    4.5769 C.ar      1 <0>        -0.1338
     13 C12        -1.7475    0.8479    4.4965 C.ar      1 <0>         0.1319
     14 C13        -2.3333    1.3757    5.6321 C.ar      1 <0>        -0.1250
     15 C14        -2.1814    0.7411    6.8513 C.ar      1 <0>        -0.0757
     16 C15        -1.4469   -0.4300    6.9413 C.ar      1 <0>         0.0651
     17 C16        -0.8486   -0.9734    5.8077 C.ar      1 <0>         0.1269
     18 O1         -0.1597   -2.1391    5.9239 O.3       1 <0>        -0.3237
     19 C17        -0.9159   -3.3495    5.8528 C.3       1 <0>         0.0342
     20 O2         -1.3074   -1.0551    8.1428 O.3       1 <0>        -0.4784
     21 O3         -1.9285    1.4462    3.2886 O.3       1 <0>        -0.2196
     22 C18        -1.7647    0.6538    2.1916 C.2       1 <0>         0.0726
     23 C19        -2.7243    0.6969    1.2350 C.2       1 <0>        -0.0898
     24 C20        -3.7229    1.7736    1.2447 C.ar      1 <0>        -0.0654
     25 C21        -3.5795    2.8579    2.1203 C.ar      1 <0>        -0.0979
     26 C22        -4.5179    3.8683    2.1279 C.ar      1 <0>        -0.1176
     27 C23        -5.6038    3.8187    1.2739 C.ar      1 <0>        -0.0967
     28 C24        -5.7599    2.7450    0.3969 C.ar      1 <0>        -0.0269
     29 C25        -4.8174    1.7235    0.3762 C.ar      1 <0>        -0.0934
     30 C26        -6.9280    2.6964   -0.5170 C.2       1 <0>        -0.0823
     31 C27        -7.8749    3.7161   -0.5163 C.2       1 <0>        -0.1553
     32 C28        -8.9254    3.6366   -1.3639 C.2       1 <0>        -0.1623
     33 S1         -8.6139    2.0957   -2.2087 S.3       1 <0>         0.0546
     34 C29        -7.0953    1.6519   -1.3824 C.2       1 <0>        -0.1745
     35 C30         0.4713   -2.8995   -2.6476 C.3       1 <0>        -0.1738
     36 C31        -1.6020   -3.1128   -1.2913 C.3       1 <0>        -0.1709
     37 H1          0.6340    1.7186   -0.8900 H         1 <0>         0.0837
     38 H2         -1.0527    1.5121   -1.4198 H         1 <0>         0.0828
     39 H3         -0.6890    1.8053    0.2977 H         1 <0>         0.0810
     40 H4         -0.6715   -0.4984   -2.3602 H         1 <0>         0.1546
     41 H5          0.6205   -3.8272   -0.1384 H         1 <0>         0.4324
     42 H6         -0.9861   -2.5640    1.1567 H         1 <0>         0.1482
     43 H7          1.1435   -0.4378    1.1618 H         1 <0>         0.1189
     44 H8          1.2272   -2.1453    4.2231 H         1 <0>         0.1603
     45 H9          1.5168   -3.4668    2.1938 H         1 <0>         0.1557
     46 H10        -2.9122    2.2857    5.5709 H         1 <0>         0.1513
     47 H11        -2.6371    1.1603    7.7357 H         1 <0>         0.1535
     48 H12        -0.2599   -4.1994    6.0408 H         1 <0>         0.1037
     49 H13        -1.7069   -3.3283    6.6024 H         1 <0>         0.0506
     50 H14        -1.3578   -3.4441    4.8608 H         1 <0>         0.0452
     51 H15        -1.9976   -1.7060    8.3300 H         1 <0>         0.3901
     52 H16        -2.7544   -0.0606    0.4658 H         1 <0>         0.1387
     53 H17        -2.7335    2.9022    2.7902 H         1 <0>         0.1479
     54 H18        -4.4041    4.7023    2.8045 H         1 <0>         0.1289
     55 H19        -6.3344    4.6140    1.2859 H         1 <0>         0.1276
     56 H20        -4.9324    0.8928   -0.3044 H         1 <0>         0.1229
     57 H21        -7.7724    4.5585    0.1517 H         1 <0>         0.1384
     58 H22        -9.7439    4.3288   -1.4959 H         1 <0>         0.1904
     59 H23        -6.4711    0.7825   -1.5276 H         1 <0>         0.1838
     60 H24         1.4476   -2.4195   -2.7162 H         1 <0>         0.0839
     61 H25         0.5994   -3.9816   -2.6230 H         1 <0>         0.0851
     62 H26        -0.1304   -2.6244   -3.5139 H         1 <0>         0.1094
     63 H27        -2.1871   -2.8481   -2.1721 H         1 <0>         0.1103
     64 H28        -1.4723   -4.1944   -1.2529 H         1 <0>         0.0857
     65 H29        -2.1230   -2.7772   -0.3947 H         1 <0>         0.0783
     66 H30         1.5358   -2.4788   -0.3558 H         1 <0>         0.4302
@<TRIPOS>BOND
     1    1    2 1
     2    1   37 1
     3    1   38 1
     4    1   39 1
     5    2    7 1
     6    2    3 2
     7    3    4 1
     8    3   40 1
     9    4    5 1
    10    4   35 1
    11    4   36 1
    12    5    6 1
    13    5   41 1
    14    5   66 1
    15    6   11 1
    16    6    7 1
    17    6   42 1
    18    7    8 1
    19    7   43 1
    20    8   22 1
    21    8    9 2
    22    9   10 1
    23    9   12 1
    24   10   11 2
    25   10   44 1
    26   11   45 1
    27   12   17 ar
    28   12   13 ar
    29   13   14 ar
    30   13   21 1
    31   14   15 ar
    32   14   46 1
    33   15   16 ar
    34   15   47 1
    35   16   17 ar
    36   16   20 1
    37   17   18 1
    38   18   19 1
    39   19   48 1
    40   19   49 1
    41   19   50 1
    42   20   51 1
    43   21   22 1
    44   22   23 2
    45   23   24 1
    46   23   52 1
    47   24   29 ar
    48   24   25 ar
    49   25   26 ar
    50   25   53 1
    51   26   27 ar
    52   26   54 1
    53   27   28 ar
    54   27   55 1
    55   28   29 ar
    56   28   30 1
    57   29   56 1
    58   30   34 2
    59   30   31 1
    60   31   32 2
    61   31   57 1
    62   32   33 1
    63   32   58 1
    64   33   34 1
    65   34   59 1
    66   35   60 1
    67   35   61 1
    68   35   62 1
    69   36   63 1
    70   36   64 1
    71   36   65 1
@<TRIPOS>MOLECULE
CHEMBL231974__2
   65    70     0     0     0
SMALL
USER_CHARGES

@<TRIPOS>ATOM
      1 C1          1.3180    2.4876   -1.3717 C.3       1 <0>        -0.1281
      2 C2          1.4658    1.0040   -1.1528 C.2       1 <0>        -0.1065
      3 C3          1.5622    0.2317   -2.1921 C.2       1 <0>        -0.1778
      4 C4          1.7188   -1.2586   -2.0923 C.3       1 <0>         0.1391
      5 N1          1.3003   -1.7225   -0.7636 N.3       1 <0>        -0.6586
      6 C5          1.9828   -0.9544    0.2881 C.3       1 <0>         0.1175
      7 C6          1.5009    0.4887    0.2570 C.3       1 <0>        -0.0284
      8 C7          2.3828    1.3667    1.1011 C.2       1 <0>        -0.1134
      9 C8          3.7185    1.0931    1.2039 C.2       1 <0>         0.0073
     10 C9          4.2821   -0.0793    0.5253 C.2       1 <0>        -0.1509
     11 C10         3.4695   -1.0342    0.0873 C.2       1 <0>        -0.1120
     12 C11         4.5600    1.9986    2.0074 C.ar      1 <0>        -0.1242
     13 C12         3.9516    3.0821    2.6596 C.ar      1 <0>         0.1303
     14 C13         4.7294    3.9440    3.4173 C.ar      1 <0>        -0.1277
     15 C14         6.0915    3.7358    3.5307 C.ar      1 <0>        -0.0866
     16 C15         6.6977    2.6655    2.8907 C.ar      1 <0>         0.0615
     17 C16         5.9353    1.7906    2.1260 C.ar      1 <0>         0.1253
     18 O1          6.5248    0.7390    1.4982 O.3       1 <0>        -0.3177
     19 C17         6.7518   -0.4373    2.2772 C.3       1 <0>         0.0305
     20 O2          8.0391    2.4719    3.0113 O.3       1 <0>        -0.4809
     21 O3          2.6178    3.2823    2.5530 O.3       1 <0>        -0.2120
     22 C18         1.8506    2.4754    1.7912 C.2       1 <0>         0.1227
     23 C19         0.5197    2.7403    1.6850 C.2       1 <0>        -0.1749
     24 C20        -0.0336    3.9683    2.2701 C.ar      1 <0>        -0.0332
     25 C21         0.8164    5.0260    2.6190 C.ar      1 <0>        -0.1123
     26 C22         0.2952    6.1787    3.1679 C.ar      1 <0>        -0.1146
     27 C23        -1.0660    6.2984    3.3772 C.ar      1 <0>        -0.1154
     28 C24        -1.9245    5.2533    3.0351 C.ar      1 <0>        -0.0281
     29 C25        -1.4113    4.0888    2.4758 C.ar      1 <0>        -0.1052
     30 C26        -3.3847    5.3869    3.2629 C.2       1 <0>        -0.0800
     31 C27        -3.9157    6.5501    3.8120 C.2       1 <0>        -0.1504
     32 C28        -5.2514    6.6346    4.0041 C.2       1 <0>        -0.1699
     33 S1         -5.8201    5.0514    3.4081 S.3       1 <0>         0.0425
     34 C29        -4.2392    4.3726    2.9328 C.2       1 <0>        -0.1686
     35 C30         0.8545   -1.9321   -3.1601 C.3       1 <0>        -0.1392
     36 C31         3.1850   -1.6311   -2.3211 C.3       1 <0>        -0.1479
     37 H1          2.3047    2.9491   -1.4120 H         1 <0>         0.0637
     38 H2          0.7948    2.6659   -2.3112 H         1 <0>         0.0625
     39 H3          0.7475    2.9211   -0.5502 H         1 <0>         0.0744
     40 H4          1.5279    0.6817   -3.1733 H         1 <0>         0.1120
     41 H5          0.2982   -1.6661   -0.6599 H         1 <0>         0.3473
     42 H6          1.7327   -1.3828    1.2587 H         1 <0>         0.0995
     43 H7          0.4926    0.5270    0.6693 H         1 <0>         0.0958
     44 H8          5.3500   -0.1653    0.3886 H         1 <0>         0.1542
     45 H9          3.8902   -1.8830   -0.4313 H         1 <0>         0.1424
     46 H10         4.2694    4.7811    3.9213 H         1 <0>         0.1476
     47 H11         6.6888    4.4133    4.1229 H         1 <0>         0.1486
     48 H12         7.4021   -0.1963    3.1181 H         1 <0>         0.0474
     49 H13         5.8000   -0.8152    2.6505 H         1 <0>         0.0529
     50 H14         7.2266   -1.1977    1.6570 H         1 <0>         0.1021
     51 H15         8.2901    1.9122    3.7589 H         1 <0>         0.3867
     52 H16        -0.1294    2.0473    1.1703 H         1 <0>         0.1471
     53 H17         1.8808    4.9383    2.4583 H         1 <0>         0.1381
     54 H18         0.9537    6.9917    3.4359 H         1 <0>         0.1229
     55 H19        -1.4663    7.2045    3.8076 H         1 <0>         0.1218
     56 H20        -2.0731    3.2793    2.2055 H         1 <0>         0.1222
     57 H21        -3.2703    7.3731    4.0812 H         1 <0>         0.1371
     58 H22        -5.8271    7.4515    4.4136 H         1 <0>         0.1877
     59 H23        -4.0156    3.4094    2.4984 H         1 <0>         0.1863
     60 H24         1.1714   -1.5979   -4.1480 H         1 <0>         0.0638
     61 H25         0.9668   -3.0140   -3.0893 H         1 <0>         0.0675
     62 H26        -0.1905   -1.6643   -3.0039 H         1 <0>         0.0553
     63 H27         3.8268   -0.8863   -1.8505 H         1 <0>         0.0704
     64 H28         3.3836   -2.6099   -1.8844 H         1 <0>         0.0719
     65 H29         3.3891   -1.6626   -3.3914 H         1 <0>         0.0586
@<TRIPOS>BOND
     1    1    2 1
     2    1   37 1
     3    1   38 1
     4    1   39 1
     5    2    7 1
     6    2    3 2
     7    3    4 1
     8    3   40 1
     9    4    5 1
    10    4   35 1
    11    4   36 1
    12    5    6 1
    13    5   41 1
    14    6   11 1
    15    6    7 1
    16    6   42 1
    17    7    8 1
    18    7   43 1
    19    8   22 1
    20    8    9 2
    21    9   10 1
    22    9   12 1
    23   10   11 2
    24   10   44 1
    25   11   45 1
    26   12   17 ar
    27   12   13 ar
    28   13   14 ar
    29   13   21 1
    30   14   15 ar
    31   14   46 1
    32   15   16 ar
    33   15   47 1
    34   16   17 ar
    35   16   20 1
    36   17   18 1
    37   18   19 1
    38   19   48 1
    39   19   49 1
    40   19   50 1
    41   20   51 1
    42   21   22 1
    43   22   23 2
    44   23   24 1
    45   23   52 1
    46   24   29 ar
    47   24   25 ar
    48   25   26 ar
    49   25   53 1
    50   26   27 ar
    51   26   54 1
    52   27   28 ar
    53   27   55 1
    54   28   29 ar
    55   28   30 1
    56   29   56 1
    57   30   34 2
    58   30   31 1
    59   31   32 2
    60   31   57 1
    61   32   33 1
    62   32   58 1
    63   33   34 1
    64   34   59 1
    65   35   60 1
    66   35   61 1
    67   35   62 1
    68   36   63 1
    69   36   64 1
    70   36   65 1
@<TRIPOS>MOLECULE
CHEMBL231974__3
   66    71     0     0     0
SMALL
USER_CHARGES

@<TRIPOS>ATOM
      1 C1          1.1677    2.8922   -1.0445 C.3       1 <0>        -0.1376
      2 C2          1.1598    1.3877   -0.9575 C.2       1 <0>        -0.0781
      3 C3          1.1218    0.7008   -2.0595 C.2       1 <0>        -0.1814
      4 C4          1.1149   -0.8006   -2.0847 C.3       1 <0>         0.1027
      5 N1          0.6817   -1.3285   -0.7859 N.4       1 <0>        -0.4964
      6 C5          1.5094   -0.7400    0.2762 C.3       1 <0>         0.0775
      7 C6          1.2024    0.7452    0.3997 C.3       1 <0>        -0.0217
      8 C7          2.2275    1.4341    1.2579 C.2       1 <0>        -0.1005
      9 C8          3.5245    1.0013    1.2493 C.2       1 <0>        -0.0023
     10 C9          3.9064   -0.1588    0.4360 C.2       1 <0>        -0.0636
     11 C10         2.9626   -0.9692   -0.0278 C.2       1 <0>        -0.2153
     12 C11         4.5106    1.7252    2.0721 C.ar      1 <0>        -0.1374
     13 C12         4.0727    2.8059    2.8530 C.ar      1 <0>         0.1373
     14 C13         4.9881    3.4987    3.6303 C.ar      1 <0>        -0.1239
     15 C14         6.3195    3.1261    3.6374 C.ar      1 <0>        -0.0747
     16 C15         6.7573    2.0573    2.8701 C.ar      1 <0>         0.0690
     17 C16         5.8554    1.3505    2.0838 C.ar      1 <0>         0.1252
     18 O1          6.2796    0.3010    1.3314 O.3       1 <0>        -0.3214
     19 C17         6.4075   -0.9602    1.9909 C.3       1 <0>         0.0261
     20 O2          8.0704    1.7008    2.8867 O.3       1 <0>        -0.4785
     21 O3          2.7691    3.1674    2.8500 O.3       1 <0>        -0.2060
     22 C18         1.8700    2.5266    2.0745 C.2       1 <0>         0.1031
     23 C19         0.5759    2.9485    2.0805 C.2       1 <0>        -0.1467
     24 C20         0.2120    4.1915    2.7728 C.ar      1 <0>        -0.0525
     25 C21         1.2021    5.1223    3.1137 C.ar      1 <0>        -0.1049
     26 C22         0.8587    6.2892    3.7634 C.ar      1 <0>        -0.1140
     27 C23        -0.4613    6.5481    4.0820 C.ar      1 <0>        -0.1035
     28 C24        -1.4578    5.6303    3.7492 C.ar      1 <0>        -0.0244
     29 C25        -1.1245    4.4532    3.0891 C.ar      1 <0>        -0.1001
     30 C26        -2.8730    5.9129    4.0945 C.2       1 <0>        -0.0825
     31 C27        -3.2249    7.0913    4.7457 C.2       1 <0>        -0.1546
     32 C28        -4.5250    7.3135    5.0432 C.2       1 <0>        -0.1632
     33 S1         -5.3151    5.8455    4.4060 S.3       1 <0>         0.0528
     34 C29        -3.8612    5.0244    3.7751 C.2       1 <0>        -0.1737
     35 C30         0.1556   -1.2847   -3.1739 C.3       1 <0>        -0.1724
     36 C31         2.5247   -1.3086   -2.3935 C.3       1 <0>        -0.1837
     37 H1          2.1966    3.2475   -1.1012 H         1 <0>         0.0811
     38 H2          0.6248    3.2074   -1.9355 H         1 <0>         0.0790
     39 H3          0.6873    3.3098   -0.1596 H         1 <0>         0.0854
     40 H4          1.0942    1.2330   -2.9988 H         1 <0>         0.1532
     41 H5         -0.2861   -1.0891   -0.6306 H         1 <0>         0.4309
     42 H6          1.2657   -1.2229    1.2225 H         1 <0>         0.1520
     43 H7          0.2281    0.8612    0.8744 H         1 <0>         0.1259
     44 H8          4.9472   -0.3524    0.2225 H         1 <0>         0.1736
     45 H9          3.2502   -1.8080   -0.6444 H         1 <0>         0.1627
     46 H10         4.6599    4.3330    4.2325 H         1 <0>         0.1530
     47 H11         7.0249    3.6727    4.2457 H         1 <0>         0.1549
     48 H12         6.7532   -1.7093    1.2785 H         1 <0>         0.1053
     49 H13         7.1274   -0.8734    2.8047 H         1 <0>         0.0545
     50 H14         5.4396   -1.2601    2.3924 H         1 <0>         0.0501
     51 H15         8.2925    1.0492    3.5658 H         1 <0>         0.3915
     52 H16        -0.1833    2.3692    1.5762 H         1 <0>         0.1446
     53 H17         2.2352    4.9256    2.8678 H         1 <0>         0.1369
     54 H18         1.6248    7.0042    4.0248 H         1 <0>         0.1270
     55 H19        -0.7220    7.4644    4.5908 H         1 <0>         0.1264
     56 H20        -1.8936    3.7423    2.8258 H         1 <0>         0.1226
     57 H21        -2.4705    7.8176    5.0099 H         1 <0>         0.1383
     58 H22        -4.9714    8.1624    5.5397 H         1 <0>         0.1901
     59 H23        -3.7825    4.0717    3.2725 H         1 <0>         0.1842
     60 H24         0.4835   -0.9053   -4.1417 H         1 <0>         0.1082
     61 H25         0.1490   -2.3745   -3.1941 H         1 <0>         0.0844
     62 H26        -0.8491   -0.9191   -2.9618 H         1 <0>         0.0830
     63 H27         3.2577   -0.6626   -1.9103 H         1 <0>         0.1034
     64 H28         2.6343   -2.3263   -2.0189 H         1 <0>         0.0835
     65 H29         2.6864   -1.2989   -3.4714 H         1 <0>         0.1020
     66 H30         0.7868   -2.3320   -0.7780 H         1 <0>         0.4334
@<TRIPOS>BOND
     1    1    2 1
     2    1   37 1
     3    1   38 1
     4    1   39 1
     5    2    7 1
     6    2    3 2
     7    3    4 1
     8    3   40 1
     9    4    5 1
    10    4   35 1
    11    4   36 1
    12    5    6 1
    13    5   41 1
    14    5   66 1
    15    6   11 1
    16    6    7 1
    17    6   42 1
    18    7    8 1
    19    7   43 1
    20    8   22 1
    21    8    9 2
    22    9   10 1
    23    9   12 1
    24   10   11 2
    25   10   44 1
    26   11   45 1
    27   12   17 ar
    28   12   13 ar
    29   13   14 ar
    30   13   21 1
    31   14   15 ar
    32   14   46 1
    33   15   16 ar
    34   15   47 1
    35   16   17 ar
    36   16   20 1
    37   17   18 1
    38   18   19 1
    39   19   48 1
    40   19   49 1
    41   19   50 1
    42   20   51 1
    43   21   22 1
    44   22   23 2
    45   23   24 1
    46   23   52 1
    47   24   29 ar
    48   24   25 ar
    49   25   26 ar
    50   25   53 1
    51   26   27 ar
    52   26   54 1
    53   27   28 ar
    54   27   55 1
    55   28   29 ar
    56   28   30 1
    57   29   56 1
    58   30   34 2
    59   30   31 1
    60   31   32 2
    61   31   57 1
    62   32   33 1
    63   32   58 1
    64   33   34 1
    65   34   59 1
    66   35   60 1
    67   35   61 1
    68   35   62 1
    69   36   63 1
    70   36   64 1
    71   36   65 1
@<TRIPOS>MOLECULE
CHEMBL231974__4
   65    70     0     0     0
SMALL
USER_CHARGES

@<TRIPOS>ATOM
      1 C1         -0.9623    1.6082    0.2852 C.3       1 <0>        -0.1259
      2 C2         -0.5523    0.1775    0.0482 C.2       1 <0>        -0.1016
      3 C3         -0.7387   -0.3323   -1.1312 C.2       1 <0>        -0.1425
      4 C4         -0.3740   -1.7474   -1.4779 C.3       1 <0>         0.1417
      5 N1          0.5858   -2.2752   -0.5002 N.3       1 <0>        -0.6640
      6 C5          0.0859   -2.0802    0.8687 C.3       1 <0>         0.1178
      7 C6          0.0581   -0.5896    1.1854 C.3       1 <0>         0.0132
      8 C7         -0.7129   -0.3301    2.4501 C.2       1 <0>        -0.1079
      9 C8         -1.7759   -1.1262    2.7752 C.2       1 <0>        -0.0002
     10 C9         -2.1373   -2.2571    1.9130 C.2       1 <0>        -0.1389
     11 C10        -1.2770   -2.6982    1.0011 C.2       1 <0>        -0.1623
     12 C11        -2.5337   -0.8179    4.0017 C.ar      1 <0>        -0.1248
     13 C12        -2.1135    0.2565    4.8009 C.ar      1 <0>         0.1257
     14 C13        -2.8169    0.5610    5.9561 C.ar      1 <0>        -0.1271
     15 C14        -3.9203   -0.1892    6.3182 C.ar      1 <0>        -0.0887
     16 C15        -4.3380   -1.2540    5.5344 C.ar      1 <0>         0.0672
     17 C16        -3.6471   -1.5742    4.3718 C.ar      1 <0>         0.1227
     18 O1         -4.0526   -2.6173    3.6004 O.3       1 <0>        -0.3236
     19 C17        -3.4932   -3.8986    3.8959 C.3       1 <0>         0.0325
     20 O2         -5.4244   -1.9855    5.9035 O.3       1 <0>        -0.4866
     21 O3         -1.0307    0.9872    4.4492 O.3       1 <0>        -0.2092
     22 C18        -0.3555    0.7288    3.3101 C.2       1 <0>         0.1141
     23 C19         0.7051    1.5157    2.9803 C.2       1 <0>        -0.1649
     24 C20         1.1692    2.5511    3.9126 C.ar      1 <0>        -0.0354
     25 C21         0.6417    2.6178    5.2088 C.ar      1 <0>        -0.1187
     26 C22         1.0789    3.5904    6.0832 C.ar      1 <0>        -0.1154
     27 C23         2.0382    4.5039    5.6880 C.ar      1 <0>        -0.1153
     28 C24         2.5722    4.4499    4.4003 C.ar      1 <0>        -0.0286
     29 C25         2.1434    3.4704    3.5120 C.ar      1 <0>        -0.1038
     30 C26         3.6010    5.4337    3.9811 C.2       1 <0>        -0.0802
     31 C27         4.0487    6.4139    4.8616 C.2       1 <0>        -0.1502
     32 C28         4.9877    7.2923    4.4432 C.2       1 <0>        -0.1704
     33 S1          5.2806    6.7618    2.7645 S.3       1 <0>         0.0422
     34 C29         4.1344    5.3941    2.7234 C.2       1 <0>        -0.1679
     35 C30         0.2521   -1.7826   -2.8735 C.3       1 <0>        -0.1347
     36 C31        -1.6354   -2.6132   -1.4688 C.3       1 <0>        -0.1864
     37 H1         -0.1267    2.2687    0.0536 H         1 <0>         0.0696
     38 H2         -1.8087    1.8545   -0.3559 H         1 <0>         0.0619
     39 H3         -1.2480    1.7361    1.3293 H         1 <0>         0.0661
     40 H4         -1.1764    0.2896   -1.8981 H         1 <0>         0.1136
     41 H5          0.7843   -3.2485   -0.6775 H         1 <0>         0.3489
     42 H6          0.7658   -2.5682    1.5671 H         1 <0>         0.0970
     43 H7          1.0798   -0.2405    1.3351 H         1 <0>         0.1037
     44 H8         -3.1033   -2.7293    2.0145 H         1 <0>         0.1504
     45 H9         -1.5552   -3.5143    0.3508 H         1 <0>         0.1361
     46 H10        -2.5014    1.3873    6.5758 H         1 <0>         0.1474
     47 H11        -4.4616    0.0562    7.2200 H         1 <0>         0.1486
     48 H12        -2.4097   -3.8564    3.7853 H         1 <0>         0.0517
     49 H13        -3.7433   -4.1769    4.9197 H         1 <0>         0.0549
     50 H14        -3.9001   -4.6400    3.2082 H         1 <0>         0.0990
     51 H15        -6.2608   -1.6532    5.5500 H         1 <0>         0.3938
     52 H16         1.2053    1.3785    2.0330 H         1 <0>         0.1494
     53 H17        -0.1083    1.9071    5.5233 H         1 <0>         0.1475
     54 H18         0.6696    3.6388    7.0814 H         1 <0>         0.1227
     55 H19         2.3754    5.2626    6.3788 H         1 <0>         0.1216
     56 H20         2.5576    3.4226    2.5157 H         1 <0>         0.1231
     57 H21         3.6518    6.4723    5.8643 H         1 <0>         0.1370
     58 H22         5.4438    8.1068    4.9861 H         1 <0>         0.1874
     59 H23         3.9174    4.7128    1.9139 H         1 <0>         0.1868
     60 H24         1.1482   -1.1621   -2.8854 H         1 <0>         0.0652
     61 H25         0.5175   -2.8089   -3.1269 H         1 <0>         0.0569
     62 H26        -0.4633   -1.4017   -3.6024 H         1 <0>         0.0615
     63 H27        -2.1614   -2.4989   -2.4166 H         1 <0>         0.0614
     64 H28        -1.3579   -3.6582   -1.3310 H         1 <0>         0.0594
     65 H29        -2.2857   -2.2993   -0.6522 H         1 <0>         0.0754
@<TRIPOS>BOND
     1    1    2 1
     2    1   37 1
     3    1   38 1
     4    1   39 1
     5    2    7 1
     6    2    3 2
     7    3    4 1
     8    3   40 1
     9    4    5 1
    10    4   35 1
    11    4   36 1
    12    5    6 1
    13    5   41 1
    14    6   11 1
    15    6    7 1
    16    6   42 1
    17    7    8 1
    18    7   43 1
    19    8   22 1
    20    8    9 2
    21    9   10 1
    22    9   12 1
    23   10   11 2
    24   10   44 1
    25   11   45 1
    26   12   17 ar
    27   12   13 ar
    28   13   14 ar
    29   13   21 1
    30   14   15 ar
    31   14   46 1
    32   15   16 ar
    33   15   47 1
    34   16   17 ar
    35   16   20 1
    36   17   18 1
    37   18   19 1
    38   19   48 1
    39   19   49 1
    40   19   50 1
    41   20   51 1
    42   21   22 1
    43   22   23 2
    44   23   24 1
    45   23   52 1
    46   24   29 ar
    47   24   25 ar
    48   25   26 ar
    49   25   53 1
    50   26   27 ar
    51   26   54 1
    52   27   28 ar
    53   27   55 1
    54   28   29 ar
    55   28   30 1
    56   29   56 1
    57   30   34 2
    58   30   31 1
    59   31   32 2
    60   31   57 1
    61   32   33 1
    62   32   58 1
    63   33   34 1
    64   34   59 1
    65   35   60 1
    66   35   61 1
    67   35   62 1
    68   36   63 1
    69   36   64 1
    70   36   65 1
@<TRIPOS>MOLECULE
CHEMBL231974__5
   66    71     0     0     0
SMALL
USER_CHARGES

@<TRIPOS>ATOM
      1 C1         -0.9166    1.2113    0.0831 C.3       1 <0>        -0.1359
      2 C2         -0.4445   -0.1949   -0.1831 C.2       1 <0>        -0.0805
      3 C3         -0.5571   -0.6719   -1.3862 C.2       1 <0>        -0.1797
      4 C4         -0.1207   -2.0599   -1.7573 C.3       1 <0>         0.1026
      5 N1          0.8331   -2.5742   -0.7677 N.4       1 <0>        -0.4971
      6 C5          0.2478   -2.4572    0.5750 C.3       1 <0>         0.0765
      7 C6          0.1420   -0.9841    0.9525 C.3       1 <0>        -0.0225
      8 C7         -0.7045   -0.8121    2.1837 C.2       1 <0>        -0.0999
      9 C8         -1.7496   -1.6627    2.4157 C.2       1 <0>        -0.0012
     10 C9         -2.0187   -2.7661    1.4867 C.2       1 <0>        -0.0669
     11 C10        -1.0936   -3.1329    0.6039 C.2       1 <0>        -0.2149
     12 C11        -2.5826   -1.4401    3.6115 C.ar      1 <0>        -0.1391
     13 C12        -2.2503   -0.3867    4.4772 C.ar      1 <0>         0.1322
     14 C13        -3.0252   -0.1625    5.6047 C.ar      1 <0>        -0.1234
     15 C14        -4.1135   -0.9714    5.8745 C.ar      1 <0>        -0.0764
     16 C15        -4.4450   -2.0152    5.0240 C.ar      1 <0>         0.0751
     17 C16        -3.6810   -2.2560    3.8884 C.ar      1 <0>         0.1242
     18 O1         -4.0014   -3.2788    3.0526 O.3       1 <0>        -0.3259
     19 C17        -3.4048   -4.5488    3.3231 C.3       1 <0>         0.0279
     20 O2         -5.5184   -2.8041    5.3016 O.3       1 <0>        -0.4843
     21 O3         -1.1821    0.4014    4.2163 O.3       1 <0>        -0.2034
     22 C18        -0.4365    0.2197    3.1066 C.2       1 <0>         0.0979
     23 C19         0.6086    1.0592    2.8707 C.2       1 <0>        -0.1434
     24 C20         1.0145    2.0318    3.8934 C.ar      1 <0>        -0.0532
     25 C21         0.4516    1.9805    5.1754 C.ar      1 <0>        -0.1112
     26 C22         0.8342    2.8943    6.1347 C.ar      1 <0>        -0.1143
     27 C23         1.7733    3.8647    5.8391 C.ar      1 <0>        -0.1039
     28 C24         2.3420    3.9282    4.5668 C.ar      1 <0>        -0.0245
     29 C25         1.9684    3.0089    3.5933 C.ar      1 <0>        -0.1003
     30 C26         3.3488    4.9726    4.2547 C.2       1 <0>        -0.0823
     31 C27         3.7416    5.8937    5.2210 C.2       1 <0>        -0.1547
     32 C28         4.6620    6.8303    4.8990 C.2       1 <0>        -0.1631
     33 S1          5.0155    6.4424    3.1931 S.3       1 <0>         0.0529
     34 C29         3.9157    5.0481    3.0134 C.2       1 <0>        -0.1738
     35 C30         0.5447   -2.0306   -3.1348 C.3       1 <0>        -0.1726
     36 C31        -1.3430   -2.9788   -1.8081 C.3       1 <0>        -0.1818
     37 H1         -0.0960    1.9083   -0.0866 H         1 <0>         0.0853
     38 H2         -1.7414    1.4508   -0.5880 H         1 <0>         0.0787
     39 H3         -1.2539    1.2918    1.1165 H         1 <0>         0.0798
     40 H4         -0.9830   -0.0422   -2.1534 H         1 <0>         0.1533
     41 H5          1.0335   -3.5433   -0.9648 H         1 <0>         0.4333
     42 H6          0.9064   -2.9479    1.2915 H         1 <0>         0.1515
     43 H7          1.1391   -0.6007    1.1691 H         1 <0>         0.1275
     44 H8         -2.9688   -3.2790    1.5145 H         1 <0>         0.1728
     45 H9         -1.3027   -3.9283   -0.0961 H         1 <0>         0.1651
     46 H10        -2.7776    0.6472    6.2752 H         1 <0>         0.1526
     47 H11        -4.7109   -0.7885    6.7555 H         1 <0>         0.1550
     48 H12        -3.7436   -5.2743    2.5835 H         1 <0>         0.1037
     49 H13        -2.3197   -4.4586    3.2730 H         1 <0>         0.0479
     50 H14        -3.6961   -4.8823    4.3191 H         1 <0>         0.0620
     51 H15        -6.3480   -2.4888    4.9176 H         1 <0>         0.3991
     52 H16         1.1393    1.0101    1.9314 H         1 <0>         0.1444
     53 H17        -0.2828    1.2250    5.4123 H         1 <0>         0.1459
     54 H18         0.3978    2.8517    7.1217 H         1 <0>         0.1270
     55 H19         2.0676    4.5766    6.5960 H         1 <0>         0.1264
     56 H20         2.4097    3.0521    2.6085 H         1 <0>         0.1225
     57 H21         3.3171    5.8612    6.2136 H         1 <0>         0.1383
     58 H22         5.0773    7.6132    5.5163 H         1 <0>         0.1901
     59 H23         3.7421    4.4262    2.1476 H         1 <0>         0.1842
     60 H24         1.4122   -1.3714   -3.1053 H         1 <0>         0.0829
     61 H25         0.8623   -3.0373   -3.4063 H         1 <0>         0.0846
     62 H26        -0.1666   -1.6623   -3.8740 H         1 <0>         0.1082
     63 H27        -1.8139   -2.9031   -2.7882 H         1 <0>         0.1018
     64 H28        -1.0310   -4.0085   -1.6334 H         1 <0>         0.0838
     65 H29        -2.0548   -2.6794   -1.0389 H         1 <0>         0.1025
     66 H30         1.6863   -2.0373   -0.8114 H         1 <0>         0.4307
@<TRIPOS>BOND
     1    1    2 1
     2    1   37 1
     3    1   38 1
     4    1   39 1
     5    2    7 1
     6    2    3 2
     7    3    4 1
     8    3   40 1
     9    4    5 1
    10    4   35 1
    11    4   36 1
    12    5    6 1
    13    5   41 1
    14    5   66 1
    15    6   11 1
    16    6    7 1
    17    6   42 1
    18    7    8 1
    19    7   43 1
    20    8   22 1
    21    8    9 2
    22    9   10 1
    23    9   12 1
    24   10   11 2
    25   10   44 1
    26   11   45 1
    27   12   17 ar
    28   12   13 ar
    29   13   14 ar
    30   13   21 1
    31   14   15 ar
    32   14   46 1
    33   15   16 ar
    34   15   47 1
    35   16   17 ar
    36   16   20 1
    37   17   18 1
    38   18   19 1
    39   19   48 1
    40   19   49 1
    41   19   50 1
    42   20   51 1
    43   21   22 1
    44   22   23 2
    45   23   24 1
    46   23   52 1
    47   24   29 ar
    48   24   25 ar
    49   25   26 ar
    50   25   53 1
    51   26   27 ar
    52   26   54 1
    53   27   28 ar
    54   27   55 1
    55   28   29 ar
    56   28   30 1
    57   29   56 1
    58   30   34 2
    59   30   31 1
    60   31   32 2
    61   31   57 1
    62   32   33 1
    63   32   58 1
    64   33   34 1
    65   34   59 1
    66   35   60 1
    67   35   61 1
    68   35   62 1
    69   36   63 1
    70   36   64 1
    71   36   65 1
@<TRIPOS>MOLECULE
CHEMBL231974__6
   65    70     0     0     0
SMALL
USER_CHARGES

@<TRIPOS>ATOM
      1 C1          0.3121    1.3959   -0.6342 C.3       1 <0>        -0.1223
      2 C2          0.2418   -0.0982   -0.4089 C.2       1 <0>        -0.1000
      3 C3          0.4094   -0.8685   -1.4531 C.2       1 <0>        -0.1818
      4 C4          0.2817   -2.3617   -1.4057 C.3       1 <0>         0.1424
      5 N1         -0.5107   -2.7608   -0.2319 N.3       1 <0>        -0.6595
      6 C5          0.0350   -2.1796    0.9828 C.3       1 <0>         0.1203
      7 C6         -0.0341   -0.6449    0.9379 C.3       1 <0>        -0.0336
      8 C7          0.7560   -0.1649    2.1060 C.2       1 <0>        -0.0962
      9 C8          0.4257   -0.7613    3.3213 C.2       1 <0>        -0.0172
     10 C9         -0.5486   -1.8596    3.3286 C.2       1 <0>        -0.1199
     11 C10        -0.7408   -2.5849    2.2156 C.2       1 <0>        -0.1225
     12 C11         1.0633   -0.2390    4.5398 C.ar      1 <0>        -0.1192
     13 C12         1.8425    0.9295    4.4408 C.ar      1 <0>         0.1243
     14 C13         2.4363    1.4683    5.5675 C.ar      1 <0>        -0.1287
     15 C14         2.2782    0.8558    6.7971 C.ar      1 <0>        -0.0903
     16 C15         1.5291   -0.3044    6.9065 C.ar      1 <0>         0.0632
     17 C16         0.9249   -0.8596    5.7819 C.ar      1 <0>         0.1238
     18 O1          0.2215   -2.0142    5.9192 O.3       1 <0>        -0.3259
     19 C17         0.9454   -3.2369    5.7672 C.3       1 <0>         0.0399
     20 O2          1.3806   -0.9063    8.1183 O.3       1 <0>        -0.4872
     21 O3          2.0247    1.5131    3.2266 O.3       1 <0>        -0.2265
     22 C18         1.8296    0.7257    2.1324 C.2       1 <0>         0.0991
     23 C19         2.7608    0.7719    1.1474 C.2       1 <0>        -0.1219
     24 C20         3.7592    1.8487    1.1308 C.ar      1 <0>        -0.0460
     25 C21         3.6504    2.9225    2.0242 C.ar      1 <0>        -0.1053
     26 C22         4.5891    3.9326    2.0077 C.ar      1 <0>        -0.1181
     27 C23         5.6412    3.8930    1.1119 C.ar      1 <0>        -0.1087
     28 C24         5.7622    2.8303    0.2162 C.ar      1 <0>        -0.0304
     29 C25         4.8253    1.8034    0.2274 C.ar      1 <0>        -0.0986
     30 C26         6.8931    2.7934   -0.7439 C.2       1 <0>        -0.0803
     31 C27         7.8453    3.8079   -0.7610 C.2       1 <0>        -0.1507
     32 C28         8.8617    3.7389   -1.6501 C.2       1 <0>        -0.1695
     33 S1          8.5085    2.2159   -2.5109 S.3       1 <0>         0.0442
     34 C29         7.0262    1.7592   -1.6275 C.2       1 <0>        -0.1687
     35 C30         1.6659   -3.0007   -1.3587 C.3       1 <0>        -0.1334
     36 C31        -0.4426   -2.8343   -2.6707 C.3       1 <0>        -0.1400
     37 H1          1.3370    1.7374   -0.4889 H         1 <0>         0.0754
     38 H2         -0.0066    1.6254   -1.6510 H         1 <0>         0.0640
     39 H3         -0.3433    1.9015    0.0749 H         1 <0>         0.0609
     40 H4          0.6516   -0.4052   -2.3947 H         1 <0>         0.1135
     41 H5         -1.4837   -2.5214   -0.3559 H         1 <0>         0.3477
     42 H6          1.0679   -2.4800    1.1297 H         1 <0>         0.0947
     43 H7         -1.0959   -0.3919    1.1647 H         1 <0>         0.0879
     44 H8         -1.1335   -2.0780    4.2095 H         1 <0>         0.1395
     45 H9         -1.4147   -3.4204    2.1915 H         1 <0>         0.1377
     46 H10         3.0257    2.3704    5.4906 H         1 <0>         0.1455
     47 H11         2.7410    1.2837    7.6733 H         1 <0>         0.1469
     48 H12         1.3841   -3.2779    4.7702 H         1 <0>         0.0468
     49 H13         1.7371   -3.2857    6.5148 H         1 <0>         0.0523
     50 H14         0.2672   -4.0797    5.9007 H         1 <0>         0.0981
     51 H15         0.6130   -0.5981    8.6192 H         1 <0>         0.3931
     52 H16         2.7680    0.0169    0.3752 H         1 <0>         0.1412
     53 H17         2.8305    2.9593    2.7262 H         1 <0>         0.1479
     54 H18         4.5016    4.7588    2.6977 H         1 <0>         0.1245
     55 H19         6.3722    4.6879    1.1053 H         1 <0>         0.1229
     56 H20         4.9180    0.9768   -0.4615 H         1 <0>         0.1229
     57 H21         7.7735    4.6384   -0.0743 H         1 <0>         0.1372
     58 H22         9.6785    4.4292   -1.8009 H         1 <0>         0.1879
     59 H23         6.3967    0.8914   -1.7585 H         1 <0>         0.1861
     60 H24         2.1948   -2.6570   -0.4698 H         1 <0>         0.0523
     61 H25         1.5644   -4.0854   -1.3244 H         1 <0>         0.0674
     62 H26         2.2277   -2.7163   -2.2484 H         1 <0>         0.0627
     63 H27         0.1313   -2.5399   -3.5494 H         1 <0>         0.0645
     64 H28        -0.5420   -3.9195   -2.6485 H         1 <0>         0.0678
     65 H29        -1.4323   -2.3796   -2.7140 H         1 <0>         0.0558
@<TRIPOS>BOND
     1    1    2 1
     2    1   37 1
     3    1   38 1
     4    1   39 1
     5    2    7 1
     6    2    3 2
     7    3    4 1
     8    3   40 1
     9    4    5 1
    10    4   35 1
    11    4   36 1
    12    5    6 1
    13    5   41 1
    14    6   11 1
    15    6    7 1
    16    6   42 1
    17    7    8 1
    18    7   43 1
    19    8   22 1
    20    8    9 2
    21    9   10 1
    22    9   12 1
    23   10   11 2
    24   10   44 1
    25   11   45 1
    26   12   17 ar
    27   12   13 ar
    28   13   14 ar
    29   13   21 1
    30   14   15 ar
    31   14   46 1
    32   15   16 ar
    33   15   47 1
    34   16   17 ar
    35   16   20 1
    36   17   18 1
    37   18   19 1
    38   19   48 1
    39   19   49 1
    40   19   50 1
    41   20   51 1
    42   21   22 1
    43   22   23 2
    44   23   24 1
    45   23   52 1
    46   24   29 ar
    47   24   25 ar
    48   25   26 ar
    49   25   53 1
    50   26   27 ar
    51   26   54 1
    52   27   28 ar
    53   27   55 1
    54   28   29 ar
    55   28   30 1
    56   29   56 1
    57   30   34 2
    58   30   31 1
    59   31   32 2
    60   31   57 1
    61   32   33 1
    62   32   58 1
    63   33   34 1
    64   34   59 1
    65   35   60 1
    66   35   61 1
    67   35   62 1
    68   36   63 1
    69   36   64 1
    70   36   65 1
@<TRIPOS>MOLECULE
CHEMBL231974__7
   66    71     0     0     0
SMALL
USER_CHARGES

@<TRIPOS>ATOM
      1 C1          0.3149    1.4048   -0.6336 C.3       1 <0>        -0.1327
      2 C2          0.2423   -0.0898   -0.4132 C.2       1 <0>        -0.0702
      3 C3          0.4123   -0.8588   -1.4582 C.2       1 <0>        -0.1908
      4 C4          0.2780   -2.3508   -1.4151 C.3       1 <0>         0.1013
      5 N1         -0.5257   -2.7552   -0.2522 N.4       1 <0>        -0.4878
      6 C5          0.0342   -2.1804    0.9586 C.3       1 <0>         0.0525
      7 C6         -0.0372   -0.6453    0.9309 C.3       1 <0>        -0.0094
      8 C7          0.7631   -0.1763    2.0969 C.2       1 <0>        -0.0948
      9 C8          0.4567   -0.7939    3.3078 C.2       1 <0>        -0.0165
     10 C9         -0.5158   -1.8937    3.3169 C.2       1 <0>        -0.0374
     11 C10        -0.7252   -2.6021    2.1969 C.2       1 <0>        -0.2107
     12 C11         1.1174   -0.2920    4.5227 C.ar      1 <0>        -0.1358
     13 C12         1.8680    0.8960    4.4353 C.ar      1 <0>         0.1306
     14 C13         2.4777    1.4194    5.5604 C.ar      1 <0>        -0.1249
     15 C14         2.3681    0.7684    6.7756 C.ar      1 <0>        -0.0774
     16 C15         1.6510   -0.4131    6.8721 C.ar      1 <0>         0.0697
     17 C16         1.0287   -0.9511    5.7492 C.ar      1 <0>         0.1264
     18 O1          0.3579   -2.1269    5.8700 O.3       1 <0>        -0.3284
     19 C17         1.1074   -3.3257    5.6623 C.3       1 <0>         0.0374
     20 O2          1.5539   -1.0537    8.0693 O.3       1 <0>        -0.4852
     21 O3          2.0093    1.5095    3.2297 O.3       1 <0>        -0.2201
     22 C18         1.8250    0.7282    2.1280 C.2       1 <0>         0.0757
     23 C19         2.7569    0.7940    1.1454 C.2       1 <0>        -0.0937
     24 C20         3.7397    1.8851    1.1373 C.ar      1 <0>        -0.0660
     25 C21         3.6138    2.9516    2.0371 C.ar      1 <0>        -0.0980
     26 C22         4.5379    3.9752    2.0286 C.ar      1 <0>        -0.1177
     27 C23         5.5920    3.9564    1.1346 C.ar      1 <0>        -0.0966
     28 C24         5.7299    2.9012    0.2325 C.ar      1 <0>        -0.0267
     29 C25         4.8079    1.8608    0.2356 C.ar      1 <0>        -0.0939
     30 C26         6.8629    2.8865   -0.7257 C.2       1 <0>        -0.0826
     31 C27         7.8005    3.9148   -0.7347 C.2       1 <0>        -0.1552
     32 C28         8.8193    3.8660   -1.6224 C.2       1 <0>        -0.1623
     33 S1          8.4896    2.3434   -2.4932 S.3       1 <0>         0.0546
     34 C29         7.0125    1.8599   -1.6154 C.2       1 <0>        -0.1743
     35 C30         1.6587   -2.9967   -1.3644 C.3       1 <0>        -0.1714
     36 C31        -0.4384   -2.8148   -2.6887 C.3       1 <0>        -0.1735
     37 H1          1.3399    1.7446   -0.4849 H         1 <0>         0.0913
     38 H2         -0.0013    1.6379   -1.6503 H         1 <0>         0.0804
     39 H3         -0.3415    1.9090    0.0757 H         1 <0>         0.0760
     40 H4          0.6613   -0.3935   -2.3973 H         1 <0>         0.1547
     41 H5         -1.4779   -2.4333   -0.3782 H         1 <0>         0.4303
     42 H6          1.0683   -2.4810    1.0938 H         1 <0>         0.1479
     43 H7         -1.0971   -0.3920    1.1622 H         1 <0>         0.1195
     44 H8         -1.0827   -2.1265    4.2060 H         1 <0>         0.1600
     45 H9         -1.4027   -3.4343    2.1692 H         1 <0>         0.1561
     46 H10         3.0411    2.3388    5.4942 H         1 <0>         0.1509
     47 H11         2.8439    1.1829    7.6514 H         1 <0>         0.1531
     48 H12         0.4541   -4.1890    5.7881 H         1 <0>         0.1012
     49 H13         1.5199   -3.3261    4.6534 H         1 <0>         0.0420
     50 H14         1.9200   -3.3763    6.3871 H         1 <0>         0.0588
     51 H15         0.7944   -0.7798    8.6015 H         1 <0>         0.3985
     52 H16         2.7764    0.0439    0.3686 H         1 <0>         0.1388
     53 H17         2.7922    2.9723    2.7378 H         1 <0>         0.1485
     54 H18         4.4372    4.7958    2.7235 H         1 <0>         0.1288
     55 H19         6.3115    4.7618    1.1342 H         1 <0>         0.1276
     56 H20         4.9138    1.0399   -0.4582 H         1 <0>         0.1230
     57 H21         7.7154    4.7399   -0.0431 H         1 <0>         0.1384
     58 H22         9.6263    4.5688   -1.7674 H         1 <0>         0.1904
     59 H23         6.3959    0.9839   -1.7529 H         1 <0>         0.1838
     60 H24         2.1858   -2.6579   -0.4725 H         1 <0>         0.0783
     61 H25         1.5517   -4.0810   -1.3334 H         1 <0>         0.0859
     62 H26         2.2254   -2.7128   -2.2512 H         1 <0>         0.1104
     63 H27         0.1444   -2.5198   -3.5613 H         1 <0>         0.1094
     64 H28        -0.5435   -3.8996   -2.6717 H         1 <0>         0.0851
     65 H29        -1.4253   -2.3548   -2.7385 H         1 <0>         0.0840
     66 H30        -0.5332   -3.7650   -0.1855 H         1 <0>         0.4325
@<TRIPOS>BOND
     1    1    2 1
     2    1   37 1
     3    1   38 1
     4    1   39 1
     5    2    7 1
     6    2    3 2
     7    3    4 1
     8    3   40 1
     9    4    5 1
    10    4   35 1
    11    4   36 1
    12    5    6 1
    13    5   41 1
    14    5   66 1
    15    6   11 1
    16    6    7 1
    17    6   42 1
    18    7    8 1
    19    7   43 1
    20    8   22 1
    21    8    9 2
    22    9   10 1
    23    9   12 1
    24   10   11 2
    25   10   44 1
    26   11   45 1
    27   12   17 ar
    28   12   13 ar
    29   13   14 ar
    30   13   21 1
    31   14   15 ar
    32   14   46 1
    33   15   16 ar
    34   15   47 1
    35   16   17 ar
    36   16   20 1
    37   17   18 1
    38   18   19 1
    39   19   48 1
    40   19   49 1
    41   19   50 1
    42   20   51 1
    43   21   22 1
    44   22   23 2
    45   23   24 1
    46   23   52 1
    47   24   29 ar
    48   24   25 ar
    49   25   26 ar
    50   25   53 1
    51   26   27 ar
    52   26   54 1
    53   27   28 ar
    54   27   55 1
    55   28   29 ar
    56   28   30 1
    57   29   56 1
    58   30   34 2
    59   30   31 1
    60   31   32 2
    61   31   57 1
    62   32   33 1
    63   32   58 1
    64   33   34 1
    65   34   59 1
    66   35   60 1
    67   35   61 1
    68   35   62 1
    69   36   63 1
    70   36   64 1
    71   36   65 1
@<TRIPOS>MOLECULE
CHEMBL231399
   50    53     0     0     0
SMALL
USER_CHARGES

@<TRIPOS>ATOM
      1 C1         -1.1413   -1.1188    4.1806 C.ar      1 <0>        -0.1243
      2 C2         -0.5417    0.1256    4.1255 C.ar      1 <0>        -0.1207
      3 C3          0.5013    0.3520    3.2470 C.ar      1 <0>        -0.1060
      4 C4          0.9451   -0.6662    2.4240 C.ar      1 <0>        -0.0743
      5 C5          0.3462   -1.9108    2.4798 C.ar      1 <0>        -0.1154
      6 C6         -0.6978   -2.1368    3.3572 C.ar      1 <0>        -0.1240
      7 C7          2.0816   -0.4191    1.4656 C.3       1 <0>        -0.0049
      8 C8          3.3903   -0.7163    2.1510 C.2       1 <0>        -0.2913
      9 C9          3.9753   -1.9457    2.0253 C.2       1 <0>         0.4631
     10 N1          5.1685   -2.1930    2.6596 N.am      1 <0>        -0.6475
     11 H1          5.5888   -3.0630    2.5741 H         1 <0>         0.4300
     12 C10         5.7578   -1.2350    3.3985 C.2       1 <0>         0.7082
     13 O1          6.8137   -1.4712    3.9530 O.2       1 <0>        -0.5406
     14 N2          5.1962   -0.0198    3.5324 N.am      1 <0>        -0.6603
     15 H2          5.6374    0.6573    4.0690 H         1 <0>         0.4322
     16 C11         4.0290    0.2668    2.9229 C.2       1 <0>         0.5623
     17 O2          3.5285    1.3718    3.0449 O.2       1 <0>        -0.5130
     18 N3          3.3760   -2.9233    1.2731 N.pl3     1 <0>        -0.6405
     19 C12         3.0598   -2.6902   -0.1427 C.3       1 <0>         0.1317
     20 C13         3.6764   -3.8169   -0.9776 C.3       1 <0>        -0.1299
     21 C14         3.1953   -5.1667   -0.4401 C.3       1 <0>        -0.0444
     22 C15         3.6547   -5.3332    1.0102 C.3       1 <0>        -0.1319
     23 C16         3.0434   -4.2258    1.8660 C.3       1 <0>         0.1263
     24 C17         3.7729   -6.2764   -1.2803 C.ar      1 <0>        -0.0667
     25 C18         5.1437   -6.4293   -1.3757 C.ar      1 <0>        -0.1100
     26 C19         5.6742   -7.4469   -2.1461 C.ar      1 <0>        -0.1035
     27 C20         4.8344   -8.3121   -2.8221 C.ar      1 <0>        -0.1133
     28 C21         3.4628   -8.1597   -2.7270 C.ar      1 <0>        -0.0315
     29 C22         2.9322   -7.1445   -1.9507 C.ar      1 <0>        -0.1069
     30 Cl1         2.4075   -9.2459   -3.5756 Cl        1 <0>        -0.0675
     31 H3         -1.9532   -1.2969    4.8701 H         1 <0>         0.1183
     32 H4         -0.8885    0.9210    4.7685 H         1 <0>         0.1196
     33 H5          0.9692    1.3243    3.2034 H         1 <0>         0.1276
     34 H6          0.6927   -2.7061    1.8365 H         1 <0>         0.1176
     35 H7         -1.1659   -3.1090    3.4005 H         1 <0>         0.1181
     36 H8          1.9712   -1.0674    0.5963 H         1 <0>         0.0870
     37 H9          2.0673    0.6229    1.1459 H         1 <0>         0.0867
     38 H10         1.9784   -2.6839   -0.2793 H         1 <0>         0.0771
     39 H11         3.4754   -1.7329   -0.4572 H         1 <0>         0.0883
     40 H12         3.3689   -3.7091   -2.0178 H         1 <0>         0.0830
     41 H13         4.7632   -3.7656   -0.9118 H         1 <0>         0.0717
     42 H14         2.1069   -5.2077   -0.4832 H         1 <0>         0.0860
     43 H15         3.3319   -6.3045    1.3849 H         1 <0>         0.0819
     44 H16         4.7417   -5.2676    1.0573 H         1 <0>         0.0703
     45 H17         3.4484   -4.2813    2.8765 H         1 <0>         0.0792
     46 H18         1.9607   -4.3475    1.8968 H         1 <0>         0.0777
     47 H19         5.8003   -5.7531   -0.8483 H         1 <0>         0.1262
     48 H20         6.7451   -7.5658   -2.2203 H         1 <0>         0.1323
     49 H21         5.2491   -9.1068   -3.4246 H         1 <0>         0.1332
     50 H22         1.8614   -7.0277   -1.8725 H         1 <0>         0.1329
@<TRIPOS>BOND
     1    1    6 ar
     2    1    2 ar
     3    1   31 1
     4    2    3 ar
     5    2   32 1
     6    3    4 ar
     7    3   33 1
     8    4    5 ar
     9    4    7 1
    10    5    6 ar
    11    5   34 1
    12    6   35 1
    13    7    8 1
    14    7   36 1
    15    7   37 1
    16    8   16 1
    17    8    9 2
    18    9   10 1
    19    9   18 1
    20   10   11 1
    21   10   12 am
    22   12   13 2
    23   12   14 am
    24   14   15 1
    25   14   16 am
    26   16   17 2
    27   18   23 1
    28   18   19 1
    29   19   20 1
    30   19   38 1
    31   19   39 1
    32   20   21 1
    33   20   40 1
    34   20   41 1
    35   21   22 1
    36   21   24 1
    37   21   42 1
    38   22   23 1
    39   22   43 1
    40   22   44 1
    41   23   45 1
    42   23   46 1
    43   24   29 ar
    44   24   25 ar
    45   25   26 ar
    46   25   47 1
    47   26   27 ar
    48   26   48 1
    49   27   28 ar
    50   27   49 1
    51   28   29 ar
    52   28   30 1
    53   29   50 1
@<TRIPOS>MOLECULE
CHEMBL235206
   46    49     0     0     0
SMALL
USER_CHARGES

@<TRIPOS>ATOM
      1 C1          0.2238    1.5064    0.1027 C.3       1 <0>        -0.1378
      2 C2          0.0021   -0.0041    0.0020 C.3       1 <0>         0.0993
      3 C3          0.5736   -0.6781    1.2227 C.ar      1 <0>        -0.0953
      4 C4          1.2837    0.0602    2.1509 C.ar      1 <0>        -0.0670
      5 C5          1.8079   -0.5565    3.2709 C.ar      1 <0>        -0.1666
      6 C6          1.6227   -1.9152    3.4645 C.ar      1 <0>         0.1186
      7 C7          0.9119   -2.6554    2.5359 C.ar      1 <0>        -0.2008
      8 C8          0.3823   -2.0355    1.4170 C.ar      1 <0>         0.1559
      9 F1         -0.3165   -2.7558    0.5126 F         1 <0>        -0.1177
     10 F2          2.1361   -2.5180    4.5591 F         1 <0>        -0.1381
     11 C9         -1.4749   -0.2903   -0.0847 C.2       1 <0>        -0.1893
     12 C10        -2.1088   -0.9193   -1.0874 C.2       1 <0>         0.0549
     13 N1         -3.4471   -0.9961   -0.8167 N.pl3     1 <0>        -0.5708
     14 H1         -4.1098   -1.4072   -1.3935 H         1 <0>         0.4128
     15 C11        -3.7133   -0.4028    0.3987 C.ar      1 <0>         0.0576
     16 C12        -2.4899    0.0592    0.9119 C.ar      1 <0>        -0.0530
     17 C13        -2.4520    0.7068    2.1501 C.ar      1 <0>        -0.1920
     18 C14        -3.6052    0.8861    2.8606 C.ar      1 <0>        -0.0711
     19 C15        -4.8182    0.4307    2.3645 C.ar      1 <0>        -0.2797
     20 C16        -4.8824   -0.2068    1.1375 C.ar      1 <0>         0.2934
     21 N2         -6.1091   -0.6645    0.6466 N.2       1 <0>        -1.1113
     22 S1         -7.4925   -0.4298    1.5261 S.o2      1 <0>         2.5316
     23 O1         -7.2986   -1.1836    2.7150 O.2       1 <0>        -1.0288
     24 O2         -7.6523    0.9811    1.5809 O.2       1 <0>        -1.0293
     25 C17        -8.8123   -1.1697    0.5254 C.3       1 <0>        -0.6397
     26 C18         0.6997   -0.5396   -1.2499 C.3       1 <0>        -0.1338
     27 C19         1.7477   -1.6379   -1.0594 C.3       1 <0>        -0.1842
     28 C20         2.1854   -0.2177   -1.4231 C.3       1 <0>        -0.1775
     29 H2          1.2921    1.7135    0.1654 H         1 <0>         0.0534
     30 H3         -0.1896    1.9940   -0.7802 H         1 <0>         0.0623
     31 H4         -0.2733    1.8880    0.9946 H         1 <0>         0.0666
     32 H5          1.4292    1.1197    2.0004 H         1 <0>         0.1450
     33 H6          2.3625    0.0214    3.9954 H         1 <0>         0.1374
     34 H7          0.7670   -3.7151    2.6860 H         1 <0>         0.1427
     35 H8         -1.6325   -1.3066   -1.9759 H         1 <0>         0.1532
     36 H9         -1.5124    1.0645    2.5447 H         1 <0>         0.0965
     37 H10        -3.5721    1.3865    3.8171 H         1 <0>         0.0972
     38 H11        -5.7211    0.5800    2.9380 H         1 <0>         0.1006
     39 H12        -8.6044   -2.2292    0.3760 H         1 <0>         0.1133
     40 H13        -9.7661   -1.0557    1.0405 H         1 <0>         0.1003
     41 H14        -8.8594   -0.6688   -0.4415 H         1 <0>         0.1133
     42 H15         0.0854   -0.5802   -2.1494 H         1 <0>         0.1102
     43 H16         1.9402   -1.9789   -0.0422 H         1 <0>         0.0939
     44 H17         1.8230   -2.4015   -1.8336 H         1 <0>         0.0902
     45 H18         2.5486   -0.0469   -2.4365 H         1 <0>         0.0907
     46 H19         2.6658    0.3757   -0.6451 H         1 <0>         0.0932
@<TRIPOS>BOND
     1    1    2 1
     2    1   29 1
     3    1   30 1
     4    1   31 1
     5    2    3 1
     6    2   11 1
     7    2   26 1
     8    3    8 ar
     9    3    4 ar
    10    4    5 ar
    11    4   32 1
    12    5    6 ar
    13    5   33 1
    14    6    7 ar
    15    6   10 1
    16    7    8 ar
    17    7   34 1
    18    8    9 1
    19   11   16 1
    20   11   12 2
    21   12   13 1
    22   12   35 1
    23   13   14 1
    24   13   15 1
    25   15   20 ar
    26   15   16 ar
    27   16   17 ar
    28   17   18 ar
    29   17   36 1
    30   18   19 ar
    31   18   37 1
    32   19   20 ar
    33   19   38 1
    34   20   21 1
    35   21   22 1
    36   22   23 2
    37   22   24 2
    38   22   25 1
    39   25   39 1
    40   25   40 1
    41   25   41 1
    42   26   28 1
    43   26   27 1
    44   26   42 1
    45   27   28 1
    46   27   43 1
    47   27   44 1
    48   28   45 1
    49   28   46 1
@<TRIPOS>MOLECULE
CHEMBL235206__1
   47    50     0     0     0
SMALL
USER_CHARGES

@<TRIPOS>ATOM
      1 C1          0.0704    2.0525   -0.6888 C.3       1 <0>        -0.1416
      2 C2         -0.0423    0.5281   -0.7556 C.3       1 <0>         0.0941
      3 C3          0.6101   -0.0776    0.4604 C.ar      1 <0>        -0.1105
      4 C4          1.2742    0.7314    1.3633 C.ar      1 <0>        -0.0654
      5 C5          1.8725    0.1774    2.4790 C.ar      1 <0>        -0.1631
      6 C6          1.8075   -1.1893    2.6936 C.ar      1 <0>         0.1281
      7 C7          1.1428   -2.0002    1.7903 C.ar      1 <0>        -0.1988
      8 C8          0.5390   -1.4434    0.6758 C.ar      1 <0>         0.1509
      9 F1         -0.1151   -2.2331   -0.2038 F         1 <0>        -0.1218
     10 F2          2.3932   -1.7307    3.7840 F         1 <0>        -0.1317
     11 C9         -1.4960    0.1331   -0.7950 C.2       1 <0>        -0.1585
     12 C10        -2.0938   -0.6195   -1.7326 C.2       1 <0>         0.0747
     13 N1         -3.4204   -0.7671   -1.4353 N.pl3     1 <0>        -0.5906
     14 H1         -4.0581   -1.2698   -1.9658 H         1 <0>         0.4160
     15 C11        -3.7158   -0.0952   -0.2684 C.ar      1 <0>         0.0813
     16 C12        -2.5231    0.4922    0.1856 C.ar      1 <0>        -0.0709
     17 C13        -2.5187    1.2411    1.3658 C.ar      1 <0>        -0.0825
     18 C14        -3.6745    1.3977    2.0775 C.ar      1 <0>        -0.1162
     19 C15        -4.8571    0.8190    1.6398 C.ar      1 <0>        -0.1548
     20 C16        -4.8883    0.0791    0.4703 C.ar      1 <0>         0.1391
     21 N2         -6.0843   -0.5022    0.0382 N.pl3     1 <0>        -1.0564
     22 S1         -7.5217    0.2840    0.2793 S.o2      1 <0>         2.6094
     23 O1         -8.4978   -0.5500   -0.3297 O.2       1 <0>        -0.9521
     24 O2         -7.5619    0.5459    1.6754 O.2       1 <0>        -0.9445
     25 C17        -7.3637    1.8377   -0.6436 C.3       1 <0>        -0.6675
     26 C18         0.6588    0.0197   -2.0169 C.3       1 <0>        -0.1447
     27 C19         1.7976   -0.9859   -1.8356 C.3       1 <0>        -0.1816
     28 C20         2.1077    0.4556   -2.2443 C.3       1 <0>        -0.1716
     29 H2          1.1219    2.3382   -0.6602 H         1 <0>         0.0640
     30 H3         -0.4014    2.4906   -1.5683 H         1 <0>         0.0658
     31 H4         -0.4290    2.4147    0.2098 H         1 <0>         0.0641
     32 H5          1.3260    1.7971    1.1964 H         1 <0>         0.1477
     33 H6          2.3911    0.8104    3.1838 H         1 <0>         0.1428
     34 H7          1.0916   -3.0661    1.9568 H         1 <0>         0.1462
     35 H8         -1.6002   -1.0449   -2.5939 H         1 <0>         0.1712
     36 H9         -1.6030    1.6951    1.7148 H         1 <0>         0.1236
     37 H10        -3.6674    1.9767    2.9892 H         1 <0>         0.1308
     38 H11        -5.7625    0.9519    2.2134 H         1 <0>         0.1650
     39 H12        -6.0721   -1.3661   -0.4029 H         1 <0>         0.4220
     40 H13        -7.1960    1.6185   -1.6980 H         1 <0>         0.1292
     41 H14        -8.2789    2.4197   -0.5345 H         1 <0>         0.1349
     42 H15        -6.5214    2.4085   -0.2527 H         1 <0>         0.1326
     43 H16         0.0232   -0.0923   -2.8953 H         1 <0>         0.1104
     44 H17         2.0474   -1.2852   -0.8177 H         1 <0>         0.0954
     45 H18         1.9113   -1.7598   -2.5947 H         1 <0>         0.0941
     46 H19         2.4253    0.6300   -3.2723 H         1 <0>         0.0956
     47 H20         2.5614    1.1045   -1.4952 H         1 <0>         0.0959
@<TRIPOS>BOND
     1    1    2 1
     2    1   29 1
     3    1   30 1
     4    1   31 1
     5    2    3 1
     6    2   11 1
     7    2   26 1
     8    3    8 ar
     9    3    4 ar
    10    4    5 ar
    11    4   32 1
    12    5    6 ar
    13    5   33 1
    14    6    7 ar
    15    6   10 1
    16    7    8 ar
    17    7   34 1
    18    8    9 1
    19   11   16 1
    20   11   12 2
    21   12   13 1
    22   12   35 1
    23   13   14 1
    24   13   15 1
    25   15   20 ar
    26   15   16 ar
    27   16   17 ar
    28   17   18 ar
    29   17   36 1
    30   18   19 ar
    31   18   37 1
    32   19   20 ar
    33   19   38 1
    34   20   21 1
    35   21   22 1
    36   21   39 1
    37   22   23 2
    38   22   24 2
    39   22   25 1
    40   25   40 1
    41   25   41 1
    42   25   42 1
    43   26   28 1
    44   26   27 1
    45   26   43 1
    46   27   28 1
    47   27   44 1
    48   27   45 1
    49   28   46 1
    50   28   47 1
@<TRIPOS>MOLECULE
CHEMBL363137
   65    68     0     0     0
SMALL
USER_CHARGES

@<TRIPOS>ATOM
      1 C1         -0.0645    1.2906    0.4461 C.3       1 <0>        -0.1447
      2 C2          0.0280   -0.1981    0.1053 C.3       1 <0>        -0.0160
      3 C3          0.8837   -0.9095    1.1554 C.3       1 <0>        -0.1677
      4 C4         -1.3757   -0.8068    0.0936 C.3       1 <0>        -0.1303
      5 C5         -2.2107   -0.1845    1.2145 C.3       1 <0>         0.1355
      6 C6         -1.4665   -0.3262    2.5438 C.3       1 <0>        -0.1196
      7 C7         -2.3607    0.1656    3.6837 C.3       1 <0>        -0.0989
      8 C8         -2.5307    1.6826    3.5804 C.3       1 <0>        -0.1206
      9 C9         -3.4249    2.1745    4.7204 C.3       1 <0>        -0.1220
     10 C10        -2.7792    1.8239    6.0625 C.3       1 <0>        -0.1207
     11 C11        -2.6091    0.3069    6.1658 C.3       1 <0>        -0.1192
     12 C12        -1.7150   -0.1849    5.0258 C.3       1 <0>        -0.1145
     13 C13        -3.5382   -0.8921    1.3041 C.2       1 <0>         0.4941
     14 O1         -3.6444   -2.0341    0.9098 O.2       1 <0>        -0.5016
     15 N1         -4.6074   -0.2559    1.8223 N.am      1 <0>        -0.6658
     16 C14        -5.8042   -0.9453    2.0122 C.ar      1 <0>         0.1911
     17 C15        -5.7823   -2.2874    2.3800 C.ar      1 <0>        -0.1296
     18 C16        -6.9606   -2.9738    2.5691 C.ar      1 <0>        -0.0086
     19 C17        -8.1826   -2.3199    2.3910 C.ar      1 <0>        -0.2135
     20 C18        -8.1971   -0.9700    2.0210 C.ar      1 <0>        -0.0797
     21 C19        -7.0201   -0.2884    1.8392 C.ar      1 <0>        -0.1276
     22 C20        -9.6495   -0.5794    1.9160 C.3       1 <0>         0.0914
     23 O2        -10.4130   -1.7454    2.2367 O.3       1 <0>        -0.3145
     24 C21        -9.5808   -2.7631    2.5144 C.2       1 <0>         0.5230
     25 O3         -9.9311   -3.8850    2.8228 O.2       1 <0>        -0.4484
     26 O4         -2.4270    1.2001    0.9348 O.3       1 <0>        -0.5331
     27 C22         0.6588   -0.3642   -1.2532 C.ar      1 <0>        -0.0676
     28 C23        -0.0417   -0.9871   -2.2691 C.ar      1 <0>        -0.1272
     29 C24         0.5369   -1.1395   -3.5152 C.ar      1 <0>        -0.1171
     30 C25         1.8160   -0.6685   -3.7456 C.ar      1 <0>        -0.1258
     31 C26         2.5162   -0.0447   -2.7299 C.ar      1 <0>        -0.1175
     32 C27         1.9359    0.1114   -1.4850 C.ar      1 <0>        -0.1143
     33 H1          0.9373    1.7191    0.4772 H         1 <0>         0.0445
     34 H2         -0.6548    1.8015   -0.3146 H         1 <0>         0.0578
     35 H3         -0.5418    1.4117    1.4185 H         1 <0>         0.0907
     36 H4          0.3809   -0.8692    2.1217 H         1 <0>         0.0814
     37 H5          1.0268   -1.9498    0.8633 H         1 <0>         0.0566
     38 H6          1.8528   -0.4162    1.2292 H         1 <0>         0.0585
     39 H7         -1.8504   -0.6069   -0.8670 H         1 <0>         0.0793
     40 H8         -1.3060   -1.8836    0.2474 H         1 <0>         0.0904
     41 H9         -1.2117   -1.3732    2.7077 H         1 <0>         0.0870
     42 H10        -0.5542    0.2696    2.5147 H         1 <0>         0.1123
     43 H11        -3.3364   -0.3150    3.6134 H         1 <0>         0.0713
     44 H12        -1.5550    2.1633    3.6507 H         1 <0>         0.0630
     45 H13        -2.9907    1.9324    2.6243 H         1 <0>         0.0882
     46 H14        -3.5460    3.2552    4.6467 H         1 <0>         0.0614
     47 H15        -4.4006    1.6938    4.6500 H         1 <0>         0.0557
     48 H16        -1.8035    2.3046    6.1328 H         1 <0>         0.0615
     49 H17        -3.4162    2.1743    6.8746 H         1 <0>         0.0588
     50 H18        -2.1492    0.0572    7.1219 H         1 <0>         0.0613
     51 H19        -3.5849   -0.1737    6.0955 H         1 <0>         0.0590
     52 H20        -1.5939   -1.2656    5.0995 H         1 <0>         0.0600
     53 H21        -0.7393    0.2958    5.0962 H         1 <0>         0.0642
     54 H22        -4.5442    0.6816    2.0631 H         1 <0>         0.4205
     55 H23        -4.8375   -2.7923    2.5172 H         1 <0>         0.1462
     56 H24        -6.9405   -4.0153    2.8542 H         1 <0>         0.1419
     57 H25        -7.0365    0.7543    1.5584 H         1 <0>         0.1401
     58 H26        -9.8732    0.2191    2.6235 H         1 <0>         0.1188
     59 H27        -9.8756   -0.2530    0.9009 H         1 <0>         0.1183
     60 H28        -2.8950    1.3653    0.1049 H         1 <0>         0.3762
     61 H29        -1.0410   -1.3551   -2.0891 H         1 <0>         0.1254
     62 H30        -0.0101   -1.6268   -4.3087 H         1 <0>         0.1202
     63 H31         2.2684   -0.7882   -4.7189 H         1 <0>         0.1200
     64 H32         3.5156    0.3230   -2.9098 H         1 <0>         0.1207
     65 H33         2.4816    0.6021   -0.6926 H         1 <0>         0.1201
@<TRIPOS>BOND
     1    1    2 1
     2    1   33 1
     3    1   34 1
     4    1   35 1
     5    2    3 1
     6    2    4 1
     7    2   27 1
     8    3   36 1
     9    3   37 1
    10    3   38 1
    11    4    5 1
    12    4   39 1
    13    4   40 1
    14    5    6 1
    15    5   13 1
    16    5   26 1
    17    6    7 1
    18    6   41 1
    19    6   42 1
    20    7   12 1
    21    7    8 1
    22    7   43 1
    23    8    9 1
    24    8   44 1
    25    8   45 1
    26    9   10 1
    27    9   46 1
    28    9   47 1
    29   10   11 1
    30   10   48 1
    31   10   49 1
    32   11   12 1
    33   11   50 1
    34   11   51 1
    35   12   52 1
    36   12   53 1
    37   13   14 2
    38   13   15 am
    39   15   16 1
    40   15   54 1
    41   16   21 ar
    42   16   17 ar
    43   17   18 ar
    44   17   55 1
    45   18   19 ar
    46   18   56 1
    47   19   24 1
    48   19   20 ar
    49   20   21 ar
    50   20   22 1
    51   21   57 1
    52   22   23 1
    53   22   58 1
    54   22   59 1
    55   23   24 1
    56   24   25 2
    57   26   60 1
    58   27   32 ar
    59   27   28 ar
    60   28   29 ar
    61   28   61 1
    62   29   30 ar
    63   29   62 1
    64   30   31 ar
    65   30   63 1
    66   31   32 ar
    67   31   64 1
    68   32   65 1
@<TRIPOS>MOLECULE
CHEMBL363137__1
   65    68     0     0     0
SMALL
USER_CHARGES

@<TRIPOS>ATOM
      1 C1         -0.1935   -0.2632    2.2397 C.3       1 <0>        -0.1442
      2 C2         -0.5894   -1.3565    1.2452 C.3       1 <0>        -0.0280
      3 C3         -1.9278   -1.9674    1.6651 C.3       1 <0>        -0.1613
      4 C4         -0.7218   -0.7502   -0.1532 C.3       1 <0>        -0.1356
      5 C5         -1.8985    0.2274   -0.1759 C.3       1 <0>         0.1353
      6 C6         -1.7994    1.1160   -1.4175 C.3       1 <0>        -0.0977
      7 C7         -0.4310    1.7997   -1.4474 C.3       1 <0>        -0.0833
      8 C8         -0.3295    2.7888   -0.2845 C.3       1 <0>        -0.1206
      9 C9          1.0389    3.4725   -0.3145 C.3       1 <0>        -0.1209
     10 C10         1.2056    4.2223   -1.6377 C.3       1 <0>        -0.1215
     11 C11         1.1041    3.2332   -2.8006 C.3       1 <0>        -0.1188
     12 C12        -0.2643    2.5495   -2.7707 C.3       1 <0>        -0.1163
     13 C13        -3.1923   -0.5445   -0.2126 C.2       1 <0>         0.5019
     14 O1         -3.4884   -1.1851   -1.1989 O.2       1 <0>        -0.5001
     15 N1         -4.0203   -0.5229    0.8506 N.am      1 <0>        -0.6745
     16 C14        -5.1605   -1.3249    0.8626 C.ar      1 <0>         0.1894
     17 C15        -5.8571   -1.5600   -0.3192 C.ar      1 <0>        -0.1299
     18 C16        -6.9838   -2.3510   -0.3142 C.ar      1 <0>        -0.0101
     19 C17        -7.4291   -2.9195    0.8821 C.ar      1 <0>        -0.2121
     20 C18        -6.7236   -2.6788    2.0669 C.ar      1 <0>        -0.0811
     21 C19        -5.5978   -1.8943    2.0560 C.ar      1 <0>        -0.1266
     22 C20        -7.4572   -3.4265    3.1513 C.3       1 <0>         0.0917
     23 O2         -8.5691   -4.0724    2.5252 O.3       1 <0>        -0.3145
     24 C21        -8.5692   -3.7904    1.2115 C.2       1 <0>         0.5228
     25 O3         -9.3900   -4.1953    0.4124 O.2       1 <0>        -0.4480
     26 O4         -1.8633    1.0425    0.9973 O.3       1 <0>        -0.5387
     27 C22         0.4694   -2.4288    1.2297 C.ar      1 <0>        -0.0680
     28 C23         1.1464   -2.7147    0.0589 C.ar      1 <0>        -0.1217
     29 C24         2.1177   -3.6982    0.0446 C.ar      1 <0>        -0.1157
     30 C25         2.4122   -4.3956    1.2012 C.ar      1 <0>        -0.1232
     31 C26         1.7358   -4.1091    2.3723 C.ar      1 <0>        -0.1169
     32 C27         0.7676   -3.1226    2.3875 C.ar      1 <0>        -0.1162
     33 H1          0.5203   -0.6666    2.9580 H         1 <0>         0.0590
     34 H2          0.2622    0.5687    1.7027 H         1 <0>         0.0777
     35 H3         -1.0808    0.0871    2.7668 H         1 <0>         0.0575
     36 H4         -2.5785   -1.1843    2.0542 H         1 <0>         0.0580
     37 H5         -2.3998   -2.4365    0.8018 H         1 <0>         0.0620
     38 H6         -1.7585   -2.7167    2.4384 H         1 <0>         0.0686
     39 H7          0.1959   -0.2201   -0.4079 H         1 <0>         0.1004
     40 H8         -0.8956   -1.5449   -0.8788 H         1 <0>         0.0862
     41 H9         -1.9200    0.5051   -2.3121 H         1 <0>         0.0894
     42 H10        -2.5831    1.8729   -1.3861 H         1 <0>         0.0766
     43 H11         0.3528    1.0480   -1.3545 H         1 <0>         0.0760
     44 H12        -1.1134    3.5405   -0.3774 H         1 <0>         0.0566
     45 H13        -0.4482    2.2546    0.6582 H         1 <0>         0.0960
     46 H14         1.1112    4.1771    0.5140 H         1 <0>         0.0587
     47 H15         1.8227    2.7208   -0.2216 H         1 <0>         0.0578
     48 H16         0.4217    4.9740   -1.7306 H         1 <0>         0.0598
     49 H17         2.1804    4.7094   -1.6590 H         1 <0>         0.0579
     50 H18         1.2228    3.7674   -3.7433 H         1 <0>         0.0602
     51 H19         1.8879    2.4815   -2.7077 H         1 <0>         0.0604
     52 H20        -0.3367    1.8449   -3.5991 H         1 <0>         0.0609
     53 H21        -1.0482    3.3012   -2.8635 H         1 <0>         0.0619
     54 H22        -3.8228    0.0507    1.6076 H         1 <0>         0.4134
     55 H23        -5.5127   -1.1201   -1.2434 H         1 <0>         0.1539
     56 H24        -7.5225   -2.5315   -1.2327 H         1 <0>         0.1421
     57 H25        -5.0542   -1.7154    2.9719 H         1 <0>         0.1398
     58 H26        -6.7997   -4.1696    3.6024 H         1 <0>         0.1180
     59 H27        -7.8103   -2.7297    3.9115 H         1 <0>         0.1187
     60 H28        -2.1217    0.5794    1.8059 H         1 <0>         0.3673
     61 H29         0.9163   -2.1698   -0.8448 H         1 <0>         0.1247
     62 H30         2.6461   -3.9221   -0.8703 H         1 <0>         0.1219
     63 H31         3.1705   -5.1645    1.1899 H         1 <0>         0.1211
     64 H32         1.9657   -4.6542    3.2758 H         1 <0>         0.1216
     65 H33         0.2418   -2.8961    3.3033 H         1 <0>         0.1207
@<TRIPOS>BOND
     1    1    2 1
     2    1   33 1
     3    1   34 1
     4    1   35 1
     5    2    3 1
     6    2    4 1
     7    2   27 1
     8    3   36 1
     9    3   37 1
    10    3   38 1
    11    4    5 1
    12    4   39 1
    13    4   40 1
    14    5    6 1
    15    5   13 1
    16    5   26 1
    17    6    7 1
    18    6   41 1
    19    6   42 1
    20    7   12 1
    21    7    8 1
    22    7   43 1
    23    8    9 1
    24    8   44 1
    25    8   45 1
    26    9   10 1
    27    9   46 1
    28    9   47 1
    29   10   11 1
    30   10   48 1
    31   10   49 1
    32   11   12 1
    33   11   50 1
    34   11   51 1
    35   12   52 1
    36   12   53 1
    37   13   14 2
    38   13   15 am
    39   15   16 1
    40   15   54 1
    41   16   21 ar
    42   16   17 ar
    43   17   18 ar
    44   17   55 1
    45   18   19 ar
    46   18   56 1
    47   19   24 1
    48   19   20 ar
    49   20   21 ar
    50   20   22 1
    51   21   57 1
    52   22   23 1
    53   22   58 1
    54   22   59 1
    55   23   24 1
    56   24   25 2
    57   26   60 1
    58   27   32 ar
    59   27   28 ar
    60   28   29 ar
    61   28   61 1
    62   29   30 ar
    63   29   62 1
    64   30   31 ar
    65   30   63 1
    66   31   32 ar
    67   31   64 1
    68   32   65 1
@<TRIPOS>MOLECULE
CHEMBL197846
   51    54     0     0     0
SMALL
USER_CHARGES

@<TRIPOS>ATOM
      1 C1         -0.0173    1.5056    0.0406 C.3       1 <0>        -0.1409
      2 C2          0.0019   -0.0008    0.0019 C.2       1 <0>        -0.0551
      3 C3         -1.1326   -0.6822    0.1096 C.2       1 <0>        -0.2203
      4 C4         -1.3030   -2.1454    0.2412 C.2       1 <0>         0.3912
      5 O1         -0.4242   -2.9549    0.4452 O.2       1 <0>        -0.4470
      6 C5         -2.7909   -2.4597    0.0584 C.3       1 <0>        -0.1681
      7 C6         -3.2956   -1.1949   -0.6558 C.3       1 <0>        -0.0669
      8 C7         -2.5379   -0.1090    0.1418 C.3       1 <0>        -0.0136
      9 C8         -2.7051    1.2325   -0.5235 C.3       1 <0>        -0.1075
     10 C9         -4.1527    1.4464   -0.9849 C.3       1 <0>        -0.1143
     11 C10        -5.1295    0.4792   -0.3303 C.3       1 <0>        -0.0676
     12 C11        -4.7774   -0.9662   -0.6664 C.3       1 <0>        -0.0684
     13 C12        -5.5515   -1.9531    0.1927 C.3       1 <0>        -0.1093
     14 C13        -6.9847   -1.4683    0.4148 C.3       1 <0>        -0.0962
     15 C14        -7.3598   -0.5018   -0.6830 C.2       1 <0>        -0.0144
     16 C15        -8.3799   -0.7684   -1.4912 C.2       1 <0>        -0.2412
     17 C16        -8.7562    0.1475   -2.5645 C.2       1 <0>         0.3875
     18 O2         -9.7316   -0.0919   -3.2478 O.2       1 <0>        -0.4656
     19 C17        -7.9396    1.3847   -2.8318 C.3       1 <0>        -0.1694
     20 C18        -6.5198    1.1960   -2.2943 C.3       1 <0>        -0.1060
     21 C19        -6.5566    0.7668   -0.8322 C.3       1 <0>        -0.0363
     22 C20        -7.1733    1.8696    0.0310 C.3       1 <0>        -0.1403
     23 C21        -2.9502   -0.0542    1.6127 C.3       1 <0>        -0.1477
     24 H1         -0.5243    1.8394    0.9459 H         1 <0>         0.0763
     25 H2          1.0056    1.8823    0.0371 H         1 <0>         0.0662
     26 H3         -0.5470    1.8848   -0.8333 H         1 <0>         0.0851
     27 H4          0.9385   -0.5261   -0.1135 H         1 <0>         0.1214
     28 H5         -2.9139   -3.3333   -0.5861 H         1 <0>         0.0930
     29 H6         -3.2802   -2.6182    1.0112 H         1 <0>         0.1096
     30 H7         -2.9201   -1.2109   -1.6987 H         1 <0>         0.0806
     31 H8         -2.4259    2.0297    0.1774 H         1 <0>         0.0685
     32 H9         -2.0380    1.3016   -1.3926 H         1 <0>         0.0692
     33 H10        -4.4488    2.4758   -0.7564 H         1 <0>         0.0673
     34 H11        -4.1933    1.3203   -2.0736 H         1 <0>         0.0669
     35 H12        -5.1490    0.6272    0.7482 H         1 <0>         0.0872
     36 H13        -5.1217   -1.1338   -1.7108 H         1 <0>         0.0666
     37 H14        -5.5805   -2.9205   -0.3087 H         1 <0>         0.0699
     38 H15        -5.0651   -2.0631    1.1593 H         1 <0>         0.0719
     39 H16        -7.6611   -2.3228    0.3937 H         1 <0>         0.0777
     40 H17        -7.0533   -0.9712    1.3811 H         1 <0>         0.0839
     41 H18        -8.9428   -1.6800   -1.3497 H         1 <0>         0.1299
     42 H19        -7.8921    1.5528   -3.9135 H         1 <0>         0.0946
     43 H20        -8.4107    2.2494   -2.3685 H         1 <0>         0.1027
     44 H21        -6.0072    0.4344   -2.8869 H         1 <0>         0.0721
     45 H22        -5.9752    2.1393   -2.3870 H         1 <0>         0.0836
     46 H23        -6.5672    2.7724   -0.0452 H         1 <0>         0.0673
     47 H24        -8.1846    2.0805   -0.3168 H         1 <0>         0.0590
     48 H25        -7.2074    1.5415    1.0699 H         1 <0>         0.0614
     49 H26        -2.3105    0.6511    2.1432 H         1 <0>         0.0587
     50 H27        -3.9883    0.2697    1.6872 H         1 <0>         0.0716
     51 H28        -2.8458   -1.0443    2.0565 H         1 <0>         0.0553
@<TRIPOS>BOND
     1    1    2 1
     2    1   24 1
     3    1   25 1
     4    1   26 1
     5    2    3 2
     6    2   27 1
     7    3    8 1
     8    3    4 1
     9    4    5 2
    10    4    6 1
    11    6    7 1
    12    6   28 1
    13    6   29 1
    14    7   12 1
    15    7    8 1
    16    7   30 1
    17    8    9 1
    18    8   23 1
    19    9   10 1
    20    9   31 1
    21    9   32 1
    22   10   11 1
    23   10   33 1
    24   10   34 1
    25   11   21 1
    26   11   12 1
    27   11   35 1
    28   12   13 1
    29   12   36 1
    30   13   14 1
    31   13   37 1
    32   13   38 1
    33   14   15 1
    34   14   39 1
    35   14   40 1
    36   15   21 1
    37   15   16 2
    38   16   17 1
    39   16   41 1
    40   17   18 2
    41   17   19 1
    42   19   20 1
    43   19   42 1
    44   19   43 1
    45   20   21 1
    46   20   44 1
    47   20   45 1
    48   21   22 1
    49   22   46 1
    50   22   47 1
    51   22   48 1
    52   23   49 1
    53   23   50 1
    54   23   51 1
@<TRIPOS>MOLECULE
CHEMBL197846__1
   51    54     0     0     0
SMALL
USER_CHARGES

@<TRIPOS>ATOM
      1 C1         -0.0255    1.5160    0.0238 C.3       1 <0>        -0.1403
      2 C2          0.0015    0.0094    0.0019 C.2       1 <0>        -0.0559
      3 C3         -1.1286   -0.6755    0.1102 C.2       1 <0>        -0.2205
      4 C4         -1.3001   -2.1399    0.2451 C.2       1 <0>         0.3922
      5 O1         -0.4287   -2.9455    0.4896 O.2       1 <0>        -0.4462
      6 C5         -2.7795   -2.4597    0.0038 C.3       1 <0>        -0.1666
      7 C6         -3.2613   -1.1818   -0.7010 C.3       1 <0>        -0.0755
      8 C7         -2.5404   -0.1133    0.1422 C.3       1 <0>        -0.0132
      9 C8         -2.7232    1.2432   -0.4799 C.3       1 <0>        -0.1051
     10 C9         -4.1900    1.4935   -0.8601 C.3       1 <0>        -0.1150
     11 C10        -5.1382    0.4305   -0.3426 C.3       1 <0>        -0.0680
     12 C11        -4.7562   -0.9719   -0.7846 C.3       1 <0>        -0.0602
     13 C12        -5.1288   -1.1949   -2.2616 C.3       1 <0>        -0.1160
     14 C13        -6.6388   -1.0729   -2.4456 C.3       1 <0>        -0.0974
     15 C14        -7.0422    0.3147   -1.9801 C.2       1 <0>        -0.0152
     16 C15        -7.7749    1.0541   -2.8143 C.2       1 <0>        -0.2447
     17 C16        -8.1999    2.4017   -2.4196 C.2       1 <0>         0.3878
     18 O2         -8.5270    3.2345   -3.2380 O.2       1 <0>        -0.4575
     19 C17        -8.2056    2.6967   -0.9315 C.3       1 <0>        -0.1690
     20 C18        -6.8498    2.2519   -0.3799 C.3       1 <0>        -0.1104
     21 C19        -6.6014    0.7724   -0.6290 C.3       1 <0>        -0.0277
     22 C20        -7.4372    0.0073    0.4083 C.3       1 <0>        -0.1474
     23 C21        -2.9531   -0.1200    1.6133 C.3       1 <0>        -0.1490
     24 H1         -0.5412    1.8571    0.9214 H         1 <0>         0.0765
     25 H2          0.9955    1.8976    0.0241 H         1 <0>         0.0663
     26 H3         -0.5502    1.8828   -0.8584 H         1 <0>         0.0841
     27 H4          0.9413   -0.5125   -0.1020 H         1 <0>         0.1214
     28 H5         -2.8723   -3.3198   -0.6636 H         1 <0>         0.0932
     29 H6         -3.3064   -2.6398    0.9325 H         1 <0>         0.1071
     30 H7         -2.8477   -1.1790   -1.7310 H         1 <0>         0.0821
     31 H8         -2.3861    2.0224    0.2176 H         1 <0>         0.0695
     32 H9         -2.1012    1.3241   -1.3838 H         1 <0>         0.0674
     33 H10        -4.4771    2.4746   -0.4557 H         1 <0>         0.0697
     34 H11        -4.2726    1.5525   -1.9531 H         1 <0>         0.0611
     35 H12        -5.1062    0.4601    0.7584 H         1 <0>         0.0815
     36 H13        -5.2743   -1.7191   -0.1736 H         1 <0>         0.0815
     37 H14        -4.6279   -0.4420   -2.8705 H         1 <0>         0.0680
     38 H15        -4.8002   -2.1884   -2.5654 H         1 <0>         0.0707
     39 H16        -6.8908   -1.1874   -3.5014 H         1 <0>         0.0773
     40 H17        -7.1508   -1.8325   -1.8620 H         1 <0>         0.0857
     41 H18        -8.0560    0.6594   -3.7795 H         1 <0>         0.1332
     42 H19        -8.3355    3.7676   -0.7695 H         1 <0>         0.0918
     43 H20        -9.0123    2.1509   -0.4481 H         1 <0>         0.0996
     44 H21        -6.0782    2.8369   -0.8783 H         1 <0>         0.0760
     45 H22        -6.8193    2.4442    0.6905 H         1 <0>         0.0829
     46 H23        -7.1514    0.3250    1.4110 H         1 <0>         0.0650
     47 H24        -8.4949    0.2166    0.2485 H         1 <0>         0.0594
     48 H25        -7.2584   -1.0626    0.3013 H         1 <0>         0.0621
     49 H26        -2.3170    0.5663    2.1723 H         1 <0>         0.0596
     50 H27        -3.9928    0.1957    1.7004 H         1 <0>         0.0717
     51 H28        -2.8441   -1.1267    2.0167 H         1 <0>         0.0564
@<TRIPOS>BOND
     1    1    2 1
     2    1   24 1
     3    1   25 1
     4    1   26 1
     5    2    3 2
     6    2   27 1
     7    3    8 1
     8    3    4 1
     9    4    5 2
    10    4    6 1
    11    6    7 1
    12    6   28 1
    13    6   29 1
    14    7   12 1
    15    7    8 1
    16    7   30 1
    17    8    9 1
    18    8   23 1
    19    9   10 1
    20    9   31 1
    21    9   32 1
    22   10   11 1
    23   10   33 1
    24   10   34 1
    25   11   21 1
    26   11   12 1
    27   11   35 1
    28   12   13 1
    29   12   36 1
    30   13   14 1
    31   13   37 1
    32   13   38 1
    33   14   15 1
    34   14   39 1
    35   14   40 1
    36   15   21 1
    37   15   16 2
    38   16   17 1
    39   16   41 1
    40   17   18 2
    41   17   19 1
    42   19   20 1
    43   19   42 1
    44   19   43 1
    45   20   21 1
    46   20   44 1
    47   20   45 1
    48   21   22 1
    49   22   46 1
    50   22   47 1
    51   22   48 1
    52   23   49 1
    53   23   50 1
    54   23   51 1
@<TRIPOS>MOLECULE
CHEMBL197846__2
   51    54     0     0     0
SMALL
USER_CHARGES

@<TRIPOS>ATOM
      1 C1         -0.0184    1.5028    0.0103 C.3       1 <0>        -0.1386
      2 C2          0.0021   -0.0041    0.0020 C.2       1 <0>        -0.0555
      3 C3         -1.1388   -0.6836    0.0093 C.2       1 <0>        -0.2166
      4 C4         -1.3235   -2.1542    0.0196 C.2       1 <0>         0.3916
      5 O1         -0.4587   -2.9850    0.1944 O.2       1 <0>        -0.4461
      6 C5         -2.8064   -2.4392   -0.2494 C.3       1 <0>        -0.1673
      7 C6         -3.2597   -1.1203   -0.8943 C.3       1 <0>        -0.0714
      8 C7         -2.5384   -0.1139    0.0257 C.3       1 <0>        -0.0187
      9 C8         -2.7322    1.2840   -0.5003 C.3       1 <0>        -0.1098
     10 C9         -4.2461    1.5876   -0.5242 C.3       1 <0>        -0.1114
     11 C10        -4.9803    0.5870   -1.3939 C.3       1 <0>        -0.0625
     12 C11        -4.7387   -0.8659   -1.0079 C.3       1 <0>        -0.0569
     13 C12        -5.5325   -1.3882    0.1676 C.3       1 <0>        -0.1112
     14 C13        -6.6462   -0.4330    0.5914 C.3       1 <0>        -0.0917
     15 C14        -7.2964    0.0768   -0.6712 C.2       1 <0>        -0.0164
     16 C15        -8.5621   -0.1982   -0.9542 C.2       1 <0>        -0.2413
     17 C16        -9.1718    0.2659   -2.1984 C.2       1 <0>         0.3883
     18 O2        -10.3674    0.1313   -2.3692 O.2       1 <0>        -0.4658
     19 C17        -8.3275    0.8927   -3.2767 C.3       1 <0>        -0.1678
     20 C18        -6.8502    0.5763   -3.0476 C.3       1 <0>        -0.1060
     21 C19        -6.4513    0.9087   -1.6053 C.3       1 <0>        -0.0279
     22 C20        -6.7360    2.3882   -1.3385 C.3       1 <0>        -0.1411
     23 C21        -3.0123   -0.1740    1.4775 C.3       1 <0>        -0.1457
     24 H1          1.0042    1.8801    0.0026 H         1 <0>         0.0660
     25 H2         -0.5455    1.8639   -0.8728 H         1 <0>         0.0828
     26 H3         -0.5286    1.8543    0.9071 H         1 <0>         0.0776
     27 H4          0.9446   -0.5313   -0.0098 H         1 <0>         0.1217
     28 H5         -2.9066   -3.2622   -0.9626 H         1 <0>         0.0921
     29 H6         -3.3421   -2.6613    0.6635 H         1 <0>         0.1092
     30 H7         -2.8085   -1.0692   -1.9133 H         1 <0>         0.0792
     31 H8         -2.2297    2.0036    0.1489 H         1 <0>         0.0761
     32 H9         -2.3307    1.3648   -1.5120 H         1 <0>         0.0667
     33 H10        -4.6482    1.5968    0.4804 H         1 <0>         0.0703
     34 H11        -4.3348    2.5961   -0.9500 H         1 <0>         0.0666
     35 H12        -4.5209    0.6953   -2.4024 H         1 <0>         0.0650
     36 H13        -5.0894   -1.4674   -1.8924 H         1 <0>         0.0638
     37 H14        -6.0265   -2.3242   -0.1543 H         1 <0>         0.0582
     38 H15        -4.9214   -1.6451    1.0144 H         1 <0>         0.0786
     39 H16        -7.3775   -0.9710    1.1901 H         1 <0>         0.0776
     40 H17        -6.2288    0.3935    1.1574 H         1 <0>         0.0852
     41 H18        -9.1519   -0.7743   -0.2561 H         1 <0>         0.1308
     42 H19        -8.6324    0.4784   -4.2466 H         1 <0>         0.0955
     43 H20        -8.4927    1.9679   -3.3036 H         1 <0>         0.1037
     44 H21        -6.6706   -0.4848   -3.2319 H         1 <0>         0.0712
     45 H22        -6.2387    1.1655   -3.7335 H         1 <0>         0.0795
     46 H23        -6.1442    3.0005   -2.0189 H         1 <0>         0.0668
     47 H24        -7.7955    2.5887   -1.4976 H         1 <0>         0.0584
     48 H25        -6.4711    2.6292   -0.3091 H         1 <0>         0.0645
     49 H26        -2.3582    0.4378    2.0988 H         1 <0>         0.0582
     50 H27        -4.0327    0.2036    1.5425 H         1 <0>         0.0697
     51 H28        -2.9839   -1.2062    1.8265 H         1 <0>         0.0549
@<TRIPOS>BOND
     1    1    2 1
     2    1   24 1
     3    1   25 1
     4    1   26 1
     5    2    3 2
     6    2   27 1
     7    3    8 1
     8    3    4 1
     9    4    5 2
    10    4    6 1
    11    6    7 1
    12    6   28 1
    13    6   29 1
    14    7   12 1
    15    7    8 1
    16    7   30 1
    17    8    9 1
    18    8   23 1
    19    9   10 1
    20    9   31 1
    21    9   32 1
    22   10   11 1
    23   10   33 1
    24   10   34 1
    25   11   21 1
    26   11   12 1
    27   11   35 1
    28   12   13 1
    29   12   36 1
    30   13   14 1
    31   13   37 1
    32   13   38 1
    33   14   15 1
    34   14   39 1
    35   14   40 1
    36   15   21 1
    37   15   16 2
    38   16   17 1
    39   16   41 1
    40   17   18 2
    41   17   19 1
    42   19   20 1
    43   19   42 1
    44   19   43 1
    45   20   21 1
    46   20   44 1
    47   20   45 1
    48   21   22 1
    49   22   46 1
    50   22   47 1
    51   22   48 1
    52   23   49 1
    53   23   50 1
    54   23   51 1
@<TRIPOS>MOLECULE
CHEMBL197846__3
   51    54     0     0     0
SMALL
USER_CHARGES

@<TRIPOS>ATOM
      1 C1          0.2239    1.0381    0.1347 C.3       1 <0>        -0.1408
      2 C2         -0.0173   -0.4462    0.0365 C.2       1 <0>        -0.0518
      3 C3         -1.2649   -0.9179   -0.0097 C.2       1 <0>        -0.2129
      4 C4         -1.6718   -2.3380   -0.0994 C.2       1 <0>         0.3919
      5 O1         -0.9297   -3.2977   -0.0868 O.2       1 <0>        -0.4480
      6 C5         -3.1966   -2.3773   -0.2104 C.3       1 <0>        -0.1656
      7 C6         -3.5250   -0.9938   -0.7852 C.3       1 <0>        -0.0776
      8 C7         -2.5288   -0.1143    0.0256 C.3       1 <0>        -0.0247
      9 C8         -2.5075    1.2524   -0.6272 C.3       1 <0>        -0.1130
     10 C9         -3.9066    1.8622   -0.4421 C.3       1 <0>        -0.1236
     11 C10        -4.9960    0.9695   -1.0283 C.3       1 <0>        -0.0678
     12 C11        -4.9171   -0.4656   -0.4912 C.3       1 <0>        -0.0774
     13 C12        -5.9595   -1.3308   -1.2058 C.3       1 <0>        -0.1145
     14 C13        -7.3600   -0.8288   -0.8481 C.3       1 <0>        -0.0973
     15 C14        -7.4525    0.6476   -1.1878 C.2       1 <0>        -0.0196
     16 C15        -8.5109    1.0576   -1.8866 C.2       1 <0>        -0.2415
     17 C16        -8.6598    2.4761   -2.2294 C.2       1 <0>         0.3877
     18 O2         -9.3603    2.8405   -3.1506 O.2       1 <0>        -0.4574
     19 C17        -7.8915    3.4628   -1.3720 C.3       1 <0>        -0.1682
     20 C18        -6.4480    2.9685   -1.2887 C.3       1 <0>        -0.1055
     21 C19        -6.3687    1.5670   -0.6956 C.3       1 <0>        -0.0270
     22 C20        -6.4769    1.6805    0.8264 C.3       1 <0>        -0.1495
     23 C21        -3.0139    0.0195    1.4705 C.3       1 <0>        -0.1489
     24 H1          1.2964    1.2310    0.1608 H         1 <0>         0.0670
     25 H2         -0.2137    1.5354   -0.7309 H         1 <0>         0.0852
     26 H3         -0.2364    1.4215    1.0453 H         1 <0>         0.0776
     27 H4          0.8195   -1.1283    0.0035 H         1 <0>         0.1231
     28 H5         -3.5147   -3.1654   -0.8930 H         1 <0>         0.0932
     29 H6         -3.6528   -2.5068    0.7711 H         1 <0>         0.1063
     30 H7         -3.3162   -0.9586   -1.8544 H         1 <0>         0.0859
     31 H8         -1.7604    1.8829   -0.1452 H         1 <0>         0.0800
     32 H9         -2.2827    1.1536   -1.6892 H         1 <0>         0.0665
     33 H10        -4.0956    2.0007    0.6225 H         1 <0>         0.0763
     34 H11        -3.9390    2.8332   -0.9363 H         1 <0>         0.0673
     35 H12        -4.8791    0.9333   -2.1114 H         1 <0>         0.0716
     36 H13        -5.0953   -0.4613    0.5842 H         1 <0>         0.0904
     37 H14        -5.8124   -1.2624   -2.2837 H         1 <0>         0.0673
     38 H15        -5.8520   -2.3678   -0.8877 H         1 <0>         0.0729
     39 H16        -8.1038   -1.3828   -1.4207 H         1 <0>         0.0778
     40 H17        -7.5374   -0.9702    0.2180 H         1 <0>         0.0846
     41 H18        -9.2591    0.3450   -2.2009 H         1 <0>         0.1337
     42 H19        -7.9187    4.4515   -1.8301 H         1 <0>         0.0922
     43 H20        -8.3272    3.5040   -0.3737 H         1 <0>         0.0998
     44 H21        -6.0137    2.9694   -2.2885 H         1 <0>         0.0700
     45 H22        -5.8765    3.6454   -0.6538 H         1 <0>         0.0827
     46 H23        -5.6835    2.3279    1.1998 H         1 <0>         0.0704
     47 H24        -7.4459    2.1036    1.0912 H         1 <0>         0.0590
     48 H25        -6.3784    0.6908    1.2724 H         1 <0>         0.0641
     49 H26        -2.2957    0.6075    2.0419 H         1 <0>         0.0575
     50 H27        -3.9834    0.5176    1.4836 H         1 <0>         0.0752
     51 H28        -3.1083   -0.9711    1.9153 H         1 <0>         0.0551
@<TRIPOS>BOND
     1    1    2 1
     2    1   24 1
     3    1   25 1
     4    1   26 1
     5    2    3 2
     6    2   27 1
     7    3    8 1
     8    3    4 1
     9    4    5 2
    10    4    6 1
    11    6    7 1
    12    6   28 1
    13    6   29 1
    14    7   12 1
    15    7    8 1
    16    7   30 1
    17    8    9 1
    18    8   23 1
    19    9   10 1
    20    9   31 1
    21    9   32 1
    22   10   11 1
    23   10   33 1
    24   10   34 1
    25   11   21 1
    26   11   12 1
    27   11   35 1
    28   12   13 1
    29   12   36 1
    30   13   14 1
    31   13   37 1
    32   13   38 1
    33   14   15 1
    34   14   39 1
    35   14   40 1
    36   15   21 1
    37   15   16 2
    38   16   17 1
    39   16   41 1
    40   17   18 2
    41   17   19 1
    42   19   20 1
    43   19   42 1
    44   19   43 1
    45   20   21 1
    46   20   44 1
    47   20   45 1
    48   21   22 1
    49   22   46 1
    50   22   47 1
    51   22   48 1
    52   23   49 1
    53   23   50 1
    54   23   51 1
@<TRIPOS>MOLECULE
CHEMBL197846__4
   51    54     0     0     0
SMALL
USER_CHARGES

@<TRIPOS>ATOM
      1 C1         -0.0246    1.5012   -0.0655 C.3       1 <0>        -0.1446
      2 C2          0.0021   -0.0041    0.0020 C.2       1 <0>        -0.0544
      3 C3         -1.1391   -0.6875    0.1100 C.2       1 <0>        -0.2099
      4 C4         -1.2758   -2.1486    0.2273 C.2       1 <0>         0.3914
      5 O1         -0.3671   -2.9522    0.2499 O.2       1 <0>        -0.4493
      6 C5         -2.7589   -2.4704    0.3158 C.3       1 <0>        -0.1793
      7 C6         -3.4398   -1.2428   -0.3640 C.3       1 <0>        -0.0666
      8 C7         -2.5319   -0.1075    0.1414 C.3       1 <0>        -0.0143
      9 C8         -2.6654    1.1555   -0.6784 C.3       1 <0>        -0.1299
     10 C9         -2.4175    0.8611   -2.1551 C.3       1 <0>        -0.1227
     11 C10        -3.4599   -0.1550   -2.6457 C.3       1 <0>        -0.0606
     12 C11        -3.3072   -1.4638   -1.8760 C.3       1 <0>        -0.0737
     13 C12        -4.3463   -2.5092   -2.2733 C.3       1 <0>        -0.1126
     14 C13        -4.7533   -2.4084   -3.7357 C.3       1 <0>        -0.0946
     15 C14        -3.6303   -1.7843   -4.5258 C.2       1 <0>        -0.0167
     16 C15        -3.0553   -2.4462   -5.5247 C.2       1 <0>        -0.2412
     17 C16        -1.9577   -1.8539   -6.2868 C.2       1 <0>         0.3870
     18 O2         -1.4612   -2.4645   -7.2102 O.2       1 <0>        -0.4642
     19 C17        -1.4424   -0.4834   -5.9246 C.3       1 <0>        -0.1707
     20 C18        -1.6932   -0.2367   -4.4329 C.3       1 <0>        -0.1086
     21 C19        -3.1995   -0.3753   -4.1416 C.3       1 <0>        -0.0341
     22 C20        -3.9876    0.6546   -4.9534 C.3       1 <0>        -0.1393
     23 C21        -2.9004    0.2204    1.5897 C.3       1 <0>        -0.1431
     24 H1         -0.5744    1.8936    0.7899 H         1 <0>         0.0784
     25 H2          0.9959    1.8838   -0.0481 H         1 <0>         0.0662
     26 H3         -0.5146    1.8149   -0.9873 H         1 <0>         0.0910
     27 H4          0.9447   -0.5297   -0.0369 H         1 <0>         0.1230
     28 H5         -2.9860   -3.3862   -0.2299 H         1 <0>         0.0950
     29 H6         -3.0716   -2.5551    1.3565 H         1 <0>         0.1045
     30 H7         -4.4783   -1.1189   -0.0568 H         1 <0>         0.0987
     31 H8         -3.6699    1.5605   -0.5554 H         1 <0>         0.0680
     32 H9         -1.9388    1.8896   -0.3303 H         1 <0>         0.0879
     33 H10        -2.5073    1.7824   -2.7306 H         1 <0>         0.0690
     34 H11        -1.4171    0.4470   -2.2813 H         1 <0>         0.0727
     35 H12        -4.4615    0.2513   -2.5048 H         1 <0>         0.0817
     36 H13        -2.3195   -1.8785   -2.0775 H         1 <0>         0.0677
     37 H14        -3.9343   -3.5017   -2.0904 H         1 <0>         0.0657
     38 H15        -5.2321   -2.3784   -1.6518 H         1 <0>         0.0713
     39 H16        -4.9615   -3.4052   -4.1247 H         1 <0>         0.0766
     40 H17        -5.6466   -1.7899   -3.8227 H         1 <0>         0.0842
     41 H18        -3.4041   -3.4367   -5.7768 H         1 <0>         0.1305
     42 H19        -0.3730   -0.4298   -6.1286 H         1 <0>         0.0949
     43 H20        -1.9660    0.2706   -6.5123 H         1 <0>         0.1035
     44 H21        -1.1307   -0.9608   -3.8435 H         1 <0>         0.0713
     45 H22        -1.3775    0.7733   -4.1718 H         1 <0>         0.0844
     46 H23        -3.6695    1.6587   -4.6732 H         1 <0>         0.0675
     47 H24        -3.8027    0.4982   -6.0162 H         1 <0>         0.0596
     48 H25        -5.0523    0.5405   -4.7493 H         1 <0>         0.0620
     49 H26        -2.2064    0.9638    1.9818 H         1 <0>         0.0584
     50 H27        -3.9154    0.6163    1.6256 H         1 <0>         0.0627
     51 H28        -2.8421   -0.6852    2.1934 H         1 <0>         0.0559
@<TRIPOS>BOND
     1    1    2 1
     2    1   24 1
     3    1   25 1
     4    1   26 1
     5    2    3 2
     6    2   27 1
     7    3    8 1
     8    3    4 1
     9    4    5 2
    10    4    6 1
    11    6    7 1
    12    6   28 1
    13    6   29 1
    14    7   12 1
    15    7    8 1
    16    7   30 1
    17    8    9 1
    18    8   23 1
    19    9   10 1
    20    9   31 1
    21    9   32 1
    22   10   11 1
    23   10   33 1
    24   10   34 1
    25   11   21 1
    26   11   12 1
    27   11   35 1
    28   12   13 1
    29   12   36 1
    30   13   14 1
    31   13   37 1
    32   13   38 1
    33   14   15 1
    34   14   39 1
    35   14   40 1
    36   15   21 1
    37   15   16 2
    38   16   17 1
    39   16   41 1
    40   17   18 2
    41   17   19 1
    42   19   20 1
    43   19   42 1
    44   19   43 1
    45   20   21 1
    46   20   44 1
    47   20   45 1
    48   21   22 1
    49   22   46 1
    50   22   47 1
    51   22   48 1
    52   23   49 1
    53   23   50 1
    54   23   51 1
@<TRIPOS>MOLECULE
CHEMBL197846__5
   51    54     0     0     0
SMALL
USER_CHARGES

@<TRIPOS>ATOM
      1 C1         -0.0260    1.4999   -0.0887 C.3       1 <0>        -0.1437
      2 C2          0.0021   -0.0041    0.0020 C.2       1 <0>        -0.0657
      3 C3         -1.1391   -0.6875    0.1100 C.2       1 <0>        -0.2043
      4 C4         -1.2745   -2.1483    0.2272 C.2       1 <0>         0.4034
      5 O1         -0.3650   -2.9511    0.2487 O.2       1 <0>        -0.4572
      6 C5         -2.7569   -2.4719    0.3175 C.3       1 <0>        -0.1795
      7 C6         -3.4411   -1.2466   -0.3610 C.3       1 <0>        -0.0680
      8 C7         -2.5314   -0.1063    0.1413 C.3       1 <0>        -0.0148
      9 C8         -2.6597    1.1626   -0.6675 C.3       1 <0>        -0.1315
     10 C9         -2.4768    0.8953   -2.1617 C.3       1 <0>        -0.1271
     11 C10        -3.5400   -0.1176   -2.6001 C.3       1 <0>        -0.0632
     12 C11        -3.2802   -1.4429   -1.8718 C.3       1 <0>        -0.0776
     13 C12        -1.8563   -1.9247   -2.1656 C.3       1 <0>        -0.1472
     14 C13        -1.7349   -2.2494   -3.6563 C.3       1 <0>        -0.0940
     15 C14        -2.1472   -1.0290   -4.4588 C.2       1 <0>        -0.0149
     16 C15        -1.3371   -0.6271   -5.4377 C.2       1 <0>        -0.2461
     17 C16        -1.6937    0.5379   -6.2545 C.2       1 <0>         0.3889
     18 O2         -0.8590    1.1619   -6.8757 O.2       1 <0>        -0.4580
     19 C17        -3.1604    0.9210   -6.2818 C.3       1 <0>        -0.1663
     20 C18        -3.6457    0.9758   -4.8339 C.3       1 <0>        -0.1111
     21 C19        -3.4497   -0.3301   -4.1141 C.3       1 <0>        -0.0267
     22 C20        -4.5962   -1.2542   -4.5296 C.3       1 <0>        -0.1474
     23 C21        -2.8959    0.2108    1.5930 C.3       1 <0>        -0.1437
     24 H1         -0.5843    1.9045    0.7555 H         1 <0>         0.0787
     25 H2          0.9937    1.8843   -0.0677 H         1 <0>         0.0662
     26 H3         -0.5078    1.7988   -1.0197 H         1 <0>         0.0897
     27 H4          0.9457   -0.5289   -0.0203 H         1 <0>         0.1235
     28 H5         -2.9833   -3.3882   -0.2277 H         1 <0>         0.0951
     29 H6         -3.0681   -2.5571    1.3586 H         1 <0>         0.1031
     30 H7         -4.4832   -1.1261   -0.0649 H         1 <0>         0.1010
     31 H8         -3.6472    1.5930   -0.5008 H         1 <0>         0.0677
     32 H9         -1.9022    1.8735   -0.3374 H         1 <0>         0.0905
     33 H10        -2.6012    1.8236   -2.7193 H         1 <0>         0.0702
     34 H11        -1.4827    0.4869   -2.3433 H         1 <0>         0.0711
     35 H12        -4.5300    0.2593   -2.3435 H         1 <0>         0.0838
     36 H13        -3.9904   -2.1944   -2.2167 H         1 <0>         0.0813
     37 H14        -1.1453   -1.1410   -1.9043 H         1 <0>         0.0894
     38 H15        -1.6461   -2.8192   -1.5794 H         1 <0>         0.0781
     39 H16        -0.7025   -2.5090   -3.8906 H         1 <0>         0.0768
     40 H17        -2.3886   -3.0862   -3.9023 H         1 <0>         0.0839
     41 H18        -0.4171   -1.1595   -5.6295 H         1 <0>         0.1327
     42 H19        -3.2794    1.8983   -6.7497 H         1 <0>         0.0927
     43 H20        -3.7284    0.1729   -6.8349 H         1 <0>         0.0992
     44 H21        -3.0961    1.7538   -4.3041 H         1 <0>         0.0750
     45 H22        -4.7073    1.2229   -4.8240 H         1 <0>         0.0819
     46 H23        -5.5482   -0.7912   -4.2701 H         1 <0>         0.0652
     47 H24        -4.5554   -1.4225   -5.6057 H         1 <0>         0.0588
     48 H25        -4.5017   -2.2071   -4.0089 H         1 <0>         0.0625
     49 H26        -2.1997    0.9500    1.9892 H         1 <0>         0.0582
     50 H27        -3.9101    0.6079    1.6345 H         1 <0>         0.0629
     51 H28        -2.8375   -0.6997    2.1894 H         1 <0>         0.0565
@<TRIPOS>BOND
     1    1    2 1
     2    1   24 1
     3    1   25 1
     4    1   26 1
     5    2    3 2
     6    2   27 1
     7    3    8 1
     8    3    4 1
     9    4    5 2
    10    4    6 1
    11    6    7 1
    12    6   28 1
    13    6   29 1
    14    7   12 1
    15    7    8 1
    16    7   30 1
    17    8    9 1
    18    8   23 1
    19    9   10 1
    20    9   31 1
    21    9   32 1
    22   10   11 1
    23   10   33 1
    24   10   34 1
    25   11   21 1
    26   11   12 1
    27   11   35 1
    28   12   13 1
    29   12   36 1
    30   13   14 1
    31   13   37 1
    32   13   38 1
    33   14   15 1
    34   14   39 1
    35   14   40 1
    36   15   21 1
    37   15   16 2
    38   16   17 1
    39   16   41 1
    40   17   18 2
    41   17   19 1
    42   19   20 1
    43   19   42 1
    44   19   43 1
    45   20   21 1
    46   20   44 1
    47   20   45 1
    48   21   22 1
    49   22   46 1
    50   22   47 1
    51   22   48 1
    52   23   49 1
    53   23   50 1
    54   23   51 1
@<TRIPOS>MOLECULE
CHEMBL197846__6
   51    54     0     0     0
SMALL
USER_CHARGES

@<TRIPOS>ATOM
      1 C1         -0.0215    1.5025   -0.0244 C.3       1 <0>        -0.1433
      2 C2          0.0021   -0.0041    0.0020 C.2       1 <0>        -0.0553
      3 C3         -1.1384   -0.6871    0.1099 C.2       1 <0>        -0.2091
      4 C4         -1.2637   -2.1503    0.2360 C.2       1 <0>         0.3915
      5 O1         -0.3456   -2.9359    0.3459 O.2       1 <0>        -0.4503
      6 C5         -2.7418   -2.5022    0.1984 C.3       1 <0>        -0.1811
      7 C6         -3.4107   -1.2556   -0.4520 C.3       1 <0>        -0.0652
      8 C7         -2.5375   -0.1300    0.1433 C.3       1 <0>        -0.0096
      9 C8         -2.7106    1.1910   -0.5547 C.3       1 <0>        -0.1358
     10 C9         -2.6424    1.1121   -2.0698 C.3       1 <0>        -0.1077
     11 C10        -3.4546   -0.0295   -2.6649 C.3       1 <0>        -0.0590
     12 C11        -3.1717   -1.3376   -1.9557 C.3       1 <0>        -0.0705
     13 C12        -3.9470   -2.4968   -2.5744 C.3       1 <0>        -0.1156
     14 C13        -5.4477   -2.2044   -2.5287 C.3       1 <0>        -0.0970
     15 C14        -5.6951   -0.9074   -3.2774 C.2       1 <0>        -0.0169
     16 C15        -6.5869   -0.9203   -4.2644 C.2       1 <0>        -0.2432
     17 C16        -6.8749    0.2966   -5.0290 C.2       1 <0>         0.3877
     18 O2         -7.4353    0.2535   -6.1059 O.2       1 <0>        -0.4594
     19 C17        -6.4428    1.6113   -4.4122 C.3       1 <0>        -0.1673
     20 C18        -5.0208    1.4380   -3.8889 C.3       1 <0>        -0.1080
     21 C19        -4.9219    0.3125   -2.8608 C.3       1 <0>        -0.0169
     22 C20        -5.5598    0.8279   -1.5730 C.3       1 <0>        -0.1495
     23 C21        -2.9422    0.0552    1.6132 C.3       1 <0>        -0.1464
     24 H1         -0.5554    1.8729    0.8507 H         1 <0>         0.0788
     25 H2          1.0002    1.8821   -0.0142 H         1 <0>         0.0667
     26 H3         -0.5263    1.8422   -0.9288 H         1 <0>         0.0902
     27 H4          0.9425   -0.5307   -0.0664 H         1 <0>         0.1233
     28 H5         -2.9016   -3.3916   -0.4142 H         1 <0>         0.0969
     29 H6         -3.1260   -2.6752    1.2030 H         1 <0>         0.1049
     30 H7         -4.4601   -1.1610   -0.1833 H         1 <0>         0.1023
     31 H8         -3.6274    1.6715   -0.2238 H         1 <0>         0.0738
     32 H9         -1.8960    1.8588   -0.2175 H         1 <0>         0.0844
     33 H10        -2.9853    2.0655   -2.4956 H         1 <0>         0.0680
     34 H11        -1.5901    0.9960   -2.3739 H         1 <0>         0.0609
     35 H12        -3.0438   -0.1687   -3.7059 H         1 <0>         0.0602
     36 H13        -2.0941   -1.5608   -2.1004 H         1 <0>         0.0682
     37 H14        -3.6387   -2.6244   -3.6166 H         1 <0>         0.0667
     38 H15        -3.7391   -3.4201   -2.0345 H         1 <0>         0.0744
     39 H16        -5.9921   -3.0151   -3.0144 H         1 <0>         0.0766
     40 H17        -5.7773   -2.1104   -1.4967 H         1 <0>         0.0861
     41 H18        -7.1068   -1.8384   -4.5051 H         1 <0>         0.1324
     42 H19        -6.4605    2.3954   -5.1741 H         1 <0>         0.0917
     43 H20        -7.1186    1.8846   -3.6032 H         1 <0>         0.1016
     44 H21        -4.3576    1.2056   -4.7213 H         1 <0>         0.0678
     45 H22        -4.6964    2.3659   -3.4197 H         1 <0>         0.0826
     46 H23        -5.0393    1.7275   -1.2445 H         1 <0>         0.0710
     47 H24        -6.6089    1.0611   -1.7553 H         1 <0>         0.0569
     48 H25        -5.4867    0.0630   -0.7999 H         1 <0>         0.0652
     49 H26        -2.2668    0.7661    2.0892 H         1 <0>         0.0573
     50 H27        -3.9630    0.4340    1.6641 H         1 <0>         0.0627
     51 H28        -2.8841   -0.9029    2.1296 H         1 <0>         0.0563
@<TRIPOS>BOND
     1    1    2 1
     2    1   24 1
     3    1   25 1
     4    1   26 1
     5    2    3 2
     6    2   27 1
     7    3    8 1
     8    3    4 1
     9    4    5 2
    10    4    6 1
    11    6    7 1
    12    6   28 1
    13    6   29 1
    14    7   12 1
    15    7    8 1
    16    7   30 1
    17    8    9 1
    18    8   23 1
    19    9   10 1
    20    9   31 1
    21    9   32 1
    22   10   11 1
    23   10   33 1
    24   10   34 1
    25   11   21 1
    26   11   12 1
    27   11   35 1
    28   12   13 1
    29   12   36 1
    30   13   14 1
    31   13   37 1
    32   13   38 1
    33   14   15 1
    34   14   39 1
    35   14   40 1
    36   15   21 1
    37   15   16 2
    38   16   17 1
    39   16   41 1
    40   17   18 2
    41   17   19 1
    42   19   20 1
    43   19   42 1
    44   19   43 1
    45   20   21 1
    46   20   44 1
    47   20   45 1
    48   21   22 1
    49   22   46 1
    50   22   47 1
    51   22   48 1
    52   23   49 1
    53   23   50 1
    54   23   51 1
@<TRIPOS>MOLECULE
CHEMBL197846__7
   51    54     0     0     0
SMALL
USER_CHARGES

@<TRIPOS>ATOM
      1 C1          0.0461    1.3968    0.0992 C.3       1 <0>        -0.1413
      2 C2          0.0067   -0.1063    0.2005 C.2       1 <0>        -0.0507
      3 C3         -1.1658   -0.7435    0.2171 C.2       1 <0>        -0.2243
      4 C4         -1.3629   -2.1962    0.3180 C.2       1 <0>         0.3908
      5 O1         -0.4867   -3.0337    0.3709 O.2       1 <0>        -0.4498
      6 C5         -2.8610   -2.4643    0.3437 C.3       1 <0>        -0.1702
      7 C6         -3.4465   -1.1268    0.8367 C.3       1 <0>        -0.0669
      8 C7         -2.5479   -0.0939    0.1412 C.3       1 <0>        -0.0110
      9 C8         -2.8958    0.0070   -1.3462 C.3       1 <0>        -0.1056
     10 C9         -4.3836    0.2855   -1.5336 C.3       1 <0>        -0.1197
     11 C10        -5.1805   -0.8960   -0.9670 C.3       1 <0>        -0.0678
     12 C11        -4.9158   -0.9833    0.5249 C.3       1 <0>        -0.0714
     13 C12        -5.6894   -2.1670    1.1158 C.3       1 <0>        -0.1159
     14 C13        -7.1908   -1.9151    0.9644 C.3       1 <0>        -0.0973
     15 C14        -7.4948   -1.6592   -0.5005 C.2       1 <0>        -0.0194
     16 C15        -8.4953   -2.3421   -1.0557 C.2       1 <0>        -0.2407
     17 C16        -8.8405   -2.1216   -2.4643 C.2       1 <0>         0.3875
     18 O2         -9.4526   -2.9474   -3.1088 O.2       1 <0>        -0.4573
     19 C17        -8.3923   -0.8069   -3.0720 C.3       1 <0>        -0.1681
     20 C18        -6.9123   -0.6287   -2.7369 C.3       1 <0>        -0.1052
     21 C19        -6.6720   -0.6444   -1.2235 C.3       1 <0>        -0.0282
     22 C20        -7.0183    0.7406   -0.6734 C.3       1 <0>        -0.1479
     23 C21        -2.5864    1.2654    0.8423 C.3       1 <0>        -0.1470
     24 H1          1.0801    1.7273    0.0004 H         1 <0>         0.0658
     25 H2         -0.5227    1.7171   -0.7736 H         1 <0>         0.0778
     26 H3         -0.3905    1.8331    0.9976 H         1 <0>         0.0862
     27 H4          0.9274   -0.6678    0.2597 H         1 <0>         0.1232
     28 H5         -3.2273   -2.7001   -0.6554 H         1 <0>         0.1054
     29 H6         -3.0964   -3.2681    1.0412 H         1 <0>         0.0945
     30 H7         -3.2973   -1.0451    1.9133 H         1 <0>         0.0794
     31 H8         -2.3197    0.8157   -1.7957 H         1 <0>         0.0659
     32 H9         -2.6413   -0.9313   -1.8390 H         1 <0>         0.0624
     33 H10        -4.6546    1.1978   -1.0021 H         1 <0>         0.0748
     34 H11        -4.6034    0.3992   -2.5952 H         1 <0>         0.0696
     35 H12        -4.8731   -1.8174   -1.4615 H         1 <0>         0.0766
     36 H13        -5.2859   -0.0720    0.9946 H         1 <0>         0.0805
     37 H14        -5.4183   -3.0800    0.5856 H         1 <0>         0.0684
     38 H15        -5.4427   -2.2720    2.1723 H         1 <0>         0.0719
     39 H16        -7.7446   -2.7897    1.3055 H         1 <0>         0.0781
     40 H17        -7.4770   -1.0447    1.5548 H         1 <0>         0.0846
     41 H18        -9.0517   -3.0580   -0.4689 H         1 <0>         0.1338
     42 H19        -8.5266   -0.8338   -4.1533 H         1 <0>         0.0922
     43 H20        -8.9698    0.0137   -2.6465 H         1 <0>         0.0998
     44 H21        -6.3432   -1.4336   -3.2020 H         1 <0>         0.0693
     45 H22        -6.5695    0.3250   -3.1382 H         1 <0>         0.0831
     46 H23        -6.4164    1.4942   -1.1811 H         1 <0>         0.0707
     47 H24        -8.0754    0.9451   -0.8432 H         1 <0>         0.0578
     48 H25        -6.8100    0.7693    0.3962 H         1 <0>         0.0636
     49 H26        -2.0072    1.9876    0.2668 H         1 <0>         0.0718
     50 H27        -3.6191    1.6059    0.9184 H         1 <0>         0.0611
     51 H28        -2.1603    1.1713    1.8411 H         1 <0>         0.0590
@<TRIPOS>BOND
     1    1    2 1
     2    1   24 1
     3    1   25 1
     4    1   26 1
     5    2    3 2
     6    2   27 1
     7    3    8 1
     8    3    4 1
     9    4    5 2
    10    4    6 1
    11    6    7 1
    12    6   28 1
    13    6   29 1
    14    7   12 1
    15    7    8 1
    16    7   30 1
    17    8    9 1
    18    8   23 1
    19    9   10 1
    20    9   31 1
    21    9   32 1
    22   10   11 1
    23   10   33 1
    24   10   34 1
    25   11   21 1
    26   11   12 1
    27   11   35 1
    28   12   13 1
    29   12   36 1
    30   13   14 1
    31   13   37 1
    32   13   38 1
    33   14   15 1
    34   14   39 1
    35   14   40 1
    36   15   21 1
    37   15   16 2
    38   16   17 1
    39   16   41 1
    40   17   18 2
    41   17   19 1
    42   19   20 1
    43   19   42 1
    44   19   43 1
    45   20   21 1
    46   20   44 1
    47   20   45 1
    48   21   22 1
    49   22   46 1
    50   22   47 1
    51   22   48 1
    52   23   49 1
    53   23   50 1
    54   23   51 1
@<TRIPOS>MOLECULE
CHEMBL232762
   60    64     0     0     0
SMALL
USER_CHARGES

@<TRIPOS>ATOM
      1 C1         -0.0184    1.5028    0.0103 C.3       1 <0>        -0.1048
      2 C2          0.0021   -0.0041    0.0020 C.ar      1 <0>         0.1290
      3 C3          0.0055   -0.6784   -1.2044 C.ar      1 <0>        -0.1796
      4 C4          0.0244   -2.0684   -1.2121 C.ar      1 <0>        -0.0721
      5 C5          0.0392   -2.7359   -0.0034 C.ar      1 <0>        -0.1699
      6 C6          0.0347   -1.9918    1.1842 C.ar      1 <0>         0.1684
      7 N1          0.0218   -0.6593    1.1450 N.ar      1 <0>        -0.4550
      8 C7          0.0497   -2.6822    2.4762 C.2       1 <0>        -0.1445
      9 C8          0.0455   -1.9675    3.6255 C.2       1 <0>         0.1442
     10 C9          0.0997   -2.5374    4.8949 C.2       1 <0>        -0.1165
     11 C10         0.8698   -1.8628    5.8406 C.2       1 <0>        -0.0062
     12 C11         1.1014   -2.4872    7.1489 C.2       1 <0>        -0.1173
     13 C12         1.0073   -3.8210    7.2700 C.2       1 <0>        -0.1219
     14 C13         0.6014   -4.5990    6.0427 C.3       1 <0>         0.1195
     15 C14        -0.5348   -3.7965    5.3884 C.3       1 <0>         0.0128
     16 C15        -1.3164   -4.6091    4.4281 C.2       1 <0>        -0.0977
     17 C16        -1.1185   -5.8922    4.2730 C.2       1 <0>        -0.1464
     18 C17        -0.1523   -6.6860    5.0996 C.3       1 <0>         0.1461
     19 N2          0.1839   -5.9584    6.3313 N.3       1 <0>        -0.6693
     20 C18         1.1089   -6.9718    4.2895 C.3       1 <0>        -0.1767
     21 C19        -0.8097   -8.0177    5.4790 C.3       1 <0>        -0.1341
     22 C20        -2.4688   -3.9937    3.6643 C.3       1 <0>        -0.1239
     23 C21         1.3885   -0.5347    5.4798 C.ar      1 <0>        -0.1316
     24 C22         0.9071    0.0711    4.3028 C.ar      1 <0>         0.1365
     25 C23         1.3444    1.3317    3.9398 C.ar      1 <0>        -0.1228
     26 C24         2.2672    1.9985    4.7245 C.ar      1 <0>        -0.0909
     27 C25         2.7619    1.4075    5.8762 C.ar      1 <0>         0.0590
     28 C26         2.3303    0.1404    6.2569 C.ar      1 <0>         0.1242
     29 O1          2.8524   -0.4237    7.3776 O.3       1 <0>        -0.3258
     30 C27         4.0396   -1.2031    7.2189 C.3       1 <0>         0.0407
     31 O2          3.6748    2.0672    6.6408 O.3       1 <0>        -0.4879
     32 O3          0.0269   -0.6041    3.5184 O.3       1 <0>        -0.1957
     33 H1          1.0042    1.8801    0.0026 H         1 <0>         0.0768
     34 H2         -0.5455    1.8639   -0.8728 H         1 <0>         0.0739
     35 H3         -0.5286    1.8543    0.9071 H         1 <0>         0.0772
     36 H4         -0.0067   -0.1294   -2.1344 H         1 <0>         0.1317
     37 H5          0.0270   -2.6147   -2.1438 H         1 <0>         0.1336
     38 H6          0.0536   -3.8154    0.0264 H         1 <0>         0.1328
     39 H7          0.0642   -3.7615    2.5116 H         1 <0>         0.1501
     40 H8          1.3240   -1.8890    8.0193 H         1 <0>         0.1406
     41 H9          1.2119   -4.3198    8.1990 H         1 <0>         0.1347
     42 H10         1.4542   -4.5991    5.3623 H         1 <0>         0.0501
     43 H11        -1.2200   -3.5066    6.2079 H         1 <0>         0.0971
     44 H12        -1.6804   -6.4045    3.5097 H         1 <0>         0.1159
     45 H13         0.8722   -6.4589    6.8728 H         1 <0>         0.3515
     46 H14         1.5740   -6.0304    3.9968 H         1 <0>         0.0551
     47 H15         1.8072   -7.5490    4.8957 H         1 <0>         0.0591
     48 H16         0.8466   -7.5403    3.3972 H         1 <0>         0.0671
     49 H17        -1.0626   -8.5691    4.5734 H         1 <0>         0.0620
     50 H18        -0.1173   -8.6060    6.0812 H         1 <0>         0.0572
     51 H19        -1.7165   -7.8249    6.0523 H         1 <0>         0.0658
     52 H20        -2.1014   -3.5750    2.7274 H         1 <0>         0.0721
     53 H21        -3.2145   -4.7598    3.4522 H         1 <0>         0.0655
     54 H22        -2.9205   -3.2029    4.2632 H         1 <0>         0.0635
     55 H23         0.9662    1.8003    3.0430 H         1 <0>         0.1462
     56 H24         2.6032    2.9834    4.4377 H         1 <0>         0.1451
     57 H25         4.3496   -1.5944    8.1879 H         1 <0>         0.0972
     58 H26         3.8422   -2.0316    6.5388 H         1 <0>         0.0447
     59 H27         4.8327   -0.5777    6.8091 H         1 <0>         0.0519
     60 H28         3.2836    2.6216    7.3297 H         1 <0>         0.3920
@<TRIPOS>BOND
     1    1    2 1
     2    1   33 1
     3    1   34 1
     4    1   35 1
     5    2    7 ar
     6    2    3 ar
     7    3    4 ar
     8    3   36 1
     9    4    5 ar
    10    4   37 1
    11    5    6 ar
    12    5   38 1
    13    6    7 ar
    14    6    8 1
    15    8    9 2
    16    8   39 1
    17    9   32 1
    18    9   10 1
    19   10   15 1
    20   10   11 2
    21   11   12 1
    22   11   23 1
    23   12   13 2
    24   12   40 1
    25   13   14 1
    26   13   41 1
    27   14   19 1
    28   14   15 1
    29   14   42 1
    30   15   16 1
    31   15   43 1
    32   16   17 2
    33   16   22 1
    34   17   18 1
    35   17   44 1
    36   18   19 1
    37   18   20 1
    38   18   21 1
    39   19   45 1
    40   20   46 1
    41   20   47 1
    42   20   48 1
    43   21   49 1
    44   21   50 1
    45   21   51 1
    46   22   52 1
    47   22   53 1
    48   22   54 1
    49   23   28 ar
    50   23   24 ar
    51   24   25 ar
    52   24   32 1
    53   25   26 ar
    54   25   55 1
    55   26   27 ar
    56   26   56 1
    57   27   28 ar
    58   27   31 1
    59   28   29 1
    60   29   30 1
    61   30   57 1
    62   30   58 1
    63   30   59 1
    64   31   60 1
@<TRIPOS>MOLECULE
CHEMBL232762__1
   60    64     0     0     0
SMALL
USER_CHARGES

@<TRIPOS>ATOM
      1 C1         -0.5373    1.4693   -0.0654 C.3       1 <0>        -0.1032
      2 C2         -0.4418   -0.0346   -0.0620 C.ar      1 <0>         0.1318
      3 C3         -0.4277   -0.7187   -1.2628 C.ar      1 <0>        -0.1890
      4 C4         -0.3397   -2.1062   -1.2597 C.ar      1 <0>        -0.0699
      5 C5         -0.2686   -2.7612   -0.0462 C.ar      1 <0>        -0.1785
      6 C6         -0.2876   -2.0076    1.1352 C.ar      1 <0>         0.1817
      7 N1         -0.3677   -0.6778    1.0856 N.ar      1 <0>        -0.4672
      8 C7         -0.2136   -2.6848    2.4322 C.2       1 <0>        -0.2027
      9 C8         -0.2317   -1.9554    3.5842 C.2       1 <0>         0.1644
     10 C9         -0.1536   -2.6296    4.8191 C.2       1 <0>        -0.1291
     11 C10        -0.1898   -1.9067    5.9800 C.2       1 <0>         0.0228
     12 C11        -0.0713   -2.5890    7.2736 C.2       1 <0>        -0.1568
     13 C12         0.3676   -3.8422    7.3207 C.2       1 <0>        -0.1070
     14 C13         0.7779   -4.5697    6.0720 C.3       1 <0>         0.1161
     15 C14        -0.0533   -4.1289    4.8744 C.3       1 <0>        -0.0275
     16 C15        -1.4268   -4.7320    4.9369 C.2       1 <0>        -0.1081
     17 C16        -1.7363   -5.7081    5.7353 C.2       1 <0>        -0.1776
     18 C17        -0.7538   -6.3319    6.6845 C.3       1 <0>         0.1390
     19 N2          0.6182   -6.0180    6.2690 N.3       1 <0>        -0.6591
     20 C18        -0.9947   -5.7876    8.0940 C.3       1 <0>        -0.1478
     21 C19        -0.9474   -7.8496    6.6900 C.3       1 <0>        -0.1392
     22 C20        -2.4963   -4.1782    4.0312 C.3       1 <0>        -0.1236
     23 C21        -0.3447   -0.4441    5.8897 C.ar      1 <0>        -0.1383
     24 C22        -0.4086    0.1490    4.6188 C.ar      1 <0>         0.1368
     25 C23        -0.5558    1.5239    4.5165 C.ar      1 <0>        -0.1230
     26 C24        -0.6369    2.3027    5.6556 C.ar      1 <0>        -0.0865
     27 C25        -0.5709    1.7228    6.9136 C.ar      1 <0>         0.0634
     28 C26        -0.4238    0.3466    7.0379 C.ar      1 <0>         0.1263
     29 O1         -0.3577   -0.2260    8.2687 O.3       1 <0>        -0.3238
     30 C27         0.9399   -0.3648    8.8508 C.3       1 <0>         0.0319
     31 O2         -0.6503    2.5016    8.0266 O.3       1 <0>        -0.4864
     32 O3         -0.3184   -0.6124    3.5044 O.3       1 <0>        -0.1761
     33 H1          0.4649    1.8969   -0.0961 H         1 <0>         0.0764
     34 H2         -1.0985    1.7958   -0.9410 H         1 <0>         0.0729
     35 H3         -1.0472    1.8031    0.8383 H         1 <0>         0.0750
     36 H4         -0.4850   -0.1794   -2.1968 H         1 <0>         0.1299
     37 H5         -0.3275   -2.6600   -2.1868 H         1 <0>         0.1317
     38 H6         -0.1997   -3.8383   -0.0081 H         1 <0>         0.1309
     39 H7         -0.1446   -3.7617    2.4759 H         1 <0>         0.1528
     40 H8         -0.3396   -2.0742    8.1843 H         1 <0>         0.1551
     41 H9          0.4301   -4.3468    8.2734 H         1 <0>         0.1442
     42 H10         1.8258   -4.3538    5.8638 H         1 <0>         0.1004
     43 H11         0.4296   -4.4819    3.9632 H         1 <0>         0.0970
     44 H12        -2.7468   -6.0887    5.7161 H         1 <0>         0.1119
     45 H13         0.8684   -6.5263    5.4340 H         1 <0>         0.3476
     46 H14        -1.8154   -6.3337    8.5591 H         1 <0>         0.0589
     47 H15        -0.0911   -5.9120    8.6909 H         1 <0>         0.0722
     48 H16        -1.2490   -4.7293    8.0362 H         1 <0>         0.0701
     49 H17        -0.7824   -8.2405    5.6860 H         1 <0>         0.0553
     50 H18        -0.2351   -8.3043    7.3785 H         1 <0>         0.0676
     51 H19        -1.9625   -8.0853    7.0094 H         1 <0>         0.0638
     52 H20        -2.4899   -4.7220    3.0865 H         1 <0>         0.0683
     53 H21        -3.4701   -4.2900    4.5081 H         1 <0>         0.0616
     54 H22        -2.3027   -3.1220    3.8437 H         1 <0>         0.0665
     55 H23        -0.6077    1.9882    3.5428 H         1 <0>         0.1483
     56 H24        -0.7524    3.3727    5.5651 H         1 <0>         0.1480
     57 H25         0.8505   -0.8352    9.8300 H         1 <0>         0.1000
     58 H26         1.5631   -0.9842    8.2058 H         1 <0>         0.0523
     59 H27         1.3961    0.6191    8.9606 H         1 <0>         0.0546
     60 H28        -1.5516    2.6330    8.3512 H         1 <0>         0.3929
@<TRIPOS>BOND
     1    1    2 1
     2    1   33 1
     3    1   34 1
     4    1   35 1
     5    2    7 ar
     6    2    3 ar
     7    3    4 ar
     8    3   36 1
     9    4    5 ar
    10    4   37 1
    11    5    6 ar
    12    5   38 1
    13    6    7 ar
    14    6    8 1
    15    8    9 2
    16    8   39 1
    17    9   32 1
    18    9   10 1
    19   10   15 1
    20   10   11 2
    21   11   12 1
    22   11   23 1
    23   12   13 2
    24   12   40 1
    25   13   14 1
    26   13   41 1
    27   14   19 1
    28   14   15 1
    29   14   42 1
    30   15   16 1
    31   15   43 1
    32   16   17 2
    33   16   22 1
    34   17   18 1
    35   17   44 1
    36   18   19 1
    37   18   20 1
    38   18   21 1
    39   19   45 1
    40   20   46 1
    41   20   47 1
    42   20   48 1
    43   21   49 1
    44   21   50 1
    45   21   51 1
    46   22   52 1
    47   22   53 1
    48   22   54 1
    49   23   28 ar
    50   23   24 ar
    51   24   25 ar
    52   24   32 1
    53   25   26 ar
    54   25   55 1
    55   26   27 ar
    56   26   56 1
    57   27   28 ar
    58   27   31 1
    59   28   29 1
    60   29   30 1
    61   30   57 1
    62   30   58 1
    63   30   59 1
    64   31   60 1
@<TRIPOS>MOLECULE
CHEMBL232762__2
   60    64     0     0     0
SMALL
USER_CHARGES

@<TRIPOS>ATOM
      1 C1          2.4700    1.0785   -0.2650 C.3       1 <0>        -0.1032
      2 C2          2.4413   -0.4263   -0.1891 C.ar      1 <0>         0.1311
      3 C3          2.6098   -1.1696   -1.3421 C.ar      1 <0>        -0.1883
      4 C4          2.5832   -2.5578   -1.2721 C.ar      1 <0>        -0.0701
      5 C5          2.3876   -3.1539   -0.0420 C.ar      1 <0>        -0.1770
      6 C6          2.2234   -2.3420    1.0884 C.ar      1 <0>         0.1805
      7 N1          2.2612   -1.0142    0.9763 N.ar      1 <0>        -0.4668
      8 C7          2.0143   -2.9562    2.4020 C.2       1 <0>        -0.2002
      9 C8          1.8540   -2.1701    3.5045 C.2       1 <0>         0.1631
     10 C9          1.6601   -2.7847    4.7577 C.2       1 <0>        -0.1247
     11 C10         1.5174   -2.0035    5.8716 C.2       1 <0>         0.0156
     12 C11         1.2766   -2.6254    7.1785 C.2       1 <0>        -0.1397
     13 C12         0.8995   -3.8978    7.2441 C.2       1 <0>        -0.1586
     14 C13         0.6814   -4.7093    5.9988 C.3       1 <0>         0.1176
     15 C14         1.6301   -4.2826    4.8858 C.3       1 <0>         0.0142
     16 C15         3.0146   -4.8019    5.1461 C.2       1 <0>        -0.1002
     17 C16         3.2732   -5.7176    6.0296 C.2       1 <0>        -0.1444
     18 C17         2.2150   -6.3486    6.8884 C.3       1 <0>         0.1417
     19 N2          0.8883   -6.1345    6.2951 N.3       1 <0>        -0.6634
     20 C18         2.2537   -5.7219    8.2836 C.3       1 <0>        -0.1868
     21 C19         2.4832   -7.8506    7.0023 C.3       1 <0>        -0.1344
     22 C20         4.1573   -4.2341    4.3444 C.3       1 <0>        -0.1304
     23 C21         1.6074   -0.5408    5.7174 C.ar      1 <0>        -0.1347
     24 C22         1.7957   -0.0096    4.4316 C.ar      1 <0>         0.1386
     25 C23         1.8844    1.3646    4.2695 C.ar      1 <0>        -0.1227
     26 C24         1.7860    2.2030    5.3640 C.ar      1 <0>        -0.0857
     27 C25         1.5964    1.6843    6.6361 C.ar      1 <0>         0.0583
     28 C26         1.5056    0.3099    6.8200 C.ar      1 <0>         0.1249
     29 O1          1.3184   -0.2029    8.0646 O.3       1 <0>        -0.3186
     30 C27        -0.0249   -0.2561    8.5491 C.3       1 <0>         0.0305
     31 O2          1.5001    2.5213    7.7046 O.3       1 <0>        -0.4812
     32 O3          1.8917   -0.8301    3.3611 O.3       1 <0>        -0.1754
     33 H1          3.4934    1.4295   -0.1322 H         1 <0>         0.0762
     34 H2          2.0989    1.4004   -1.2381 H         1 <0>         0.0728
     35 H3          1.8386    1.4940    0.5203 H         1 <0>         0.0750
     36 H4          2.7606   -0.6756   -2.2905 H         1 <0>         0.1298
     37 H5          2.7125   -3.1573   -2.1611 H         1 <0>         0.1319
     38 H6          2.3613   -4.2299    0.0475 H         1 <0>         0.1324
     39 H7          1.9871   -4.0317    2.4970 H         1 <0>         0.1574
     40 H8          1.4058   -2.0512    8.0840 H         1 <0>         0.1516
     41 H9          0.7467   -4.3566    8.2097 H         1 <0>         0.1354
     42 H10        -0.3428   -4.5637    5.6555 H         1 <0>         0.0979
     43 H11         1.2808   -4.7081    3.9450 H         1 <0>         0.1040
     44 H12         4.2964   -6.0407    6.1522 H         1 <0>         0.1135
     45 H13         0.1609   -6.4877    6.8986 H         1 <0>         0.3489
     46 H14         2.4591   -4.6549    8.1971 H         1 <0>         0.0753
     47 H15         1.2915   -5.8680    8.7744 H         1 <0>         0.0593
     48 H16         3.0382   -6.1963    8.8733 H         1 <0>         0.0616
     49 H17         3.4623   -8.0117    7.4534 H         1 <0>         0.0614
     50 H18         1.7161   -8.3104    7.6254 H         1 <0>         0.0567
     51 H19         2.4622   -8.2998    6.0094 H         1 <0>         0.0653
     52 H20         4.5715   -3.3700    4.8638 H         1 <0>         0.0628
     53 H21         4.9311   -4.9928    4.2270 H         1 <0>         0.0634
     54 H22         3.7958   -3.9289    3.3624 H         1 <0>         0.0747
     55 H23         2.0314    1.7815    3.2841 H         1 <0>         0.1490
     56 H24         1.8571    3.2720    5.2273 H         1 <0>         0.1479
     57 H25        -0.0330   -0.6853    9.5510 H         1 <0>         0.1007
     58 H26        -0.4394    0.7515    8.5821 H         1 <0>         0.0479
     59 H27        -0.6268   -0.8751    7.8838 H         1 <0>         0.0520
     60 H28         0.5971    2.8065    7.9007 H         1 <0>         0.3856
@<TRIPOS>BOND
     1    1    2 1
     2    1   33 1
     3    1   34 1
     4    1   35 1
     5    2    7 ar
     6    2    3 ar
     7    3    4 ar
     8    3   36 1
     9    4    5 ar
    10    4   37 1
    11    5    6 ar
    12    5   38 1
    13    6    7 ar
    14    6    8 1
    15    8    9 2
    16    8   39 1
    17    9   32 1
    18    9   10 1
    19   10   15 1
    20   10   11 2
    21   11   12 1
    22   11   23 1
    23   12   13 2
    24   12   40 1
    25   13   14 1
    26   13   41 1
    27   14   19 1
    28   14   15 1
    29   14   42 1
    30   15   16 1
    31   15   43 1
    32   16   17 2
    33   16   22 1
    34   17   18 1
    35   17   44 1
    36   18   19 1
    37   18   20 1
    38   18   21 1
    39   19   45 1
    40   20   46 1
    41   20   47 1
    42   20   48 1
    43   21   49 1
    44   21   50 1
    45   21   51 1
    46   22   52 1
    47   22   53 1
    48   22   54 1
    49   23   28 ar
    50   23   24 ar
    51   24   25 ar
    52   24   32 1
    53   25   26 ar
    54   25   55 1
    55   26   27 ar
    56   26   56 1
    57   27   28 ar
    58   27   31 1
    59   28   29 1
    60   29   30 1
    61   30   57 1
    62   30   58 1
    63   30   59 1
    64   31   60 1
@<TRIPOS>MOLECULE
CHEMBL232762__3
   60    64     0     0     0
SMALL
USER_CHARGES

@<TRIPOS>ATOM
      1 C1         -0.0034    1.4875    0.0118 C.3       1 <0>        -0.1037
      2 C2          0.0227   -0.0193    0.0088 C.ar      1 <0>         0.1287
      3 C3          0.0323   -0.6977   -1.1953 C.ar      1 <0>        -0.1796
      4 C4          0.0563   -2.0878   -1.1981 C.ar      1 <0>        -0.0722
      5 C5          0.0700   -2.7510    0.0130 C.ar      1 <0>        -0.1693
      6 C6          0.0591   -2.0028    1.1980 C.ar      1 <0>         0.1684
      7 N1          0.0414   -0.6705    1.1541 N.ar      1 <0>        -0.4552
      8 C7          0.0728   -2.6887    2.4924 C.2       1 <0>        -0.1417
      9 C8          0.0624   -1.9701    3.6391 C.2       1 <0>         0.1416
     10 C9          0.0329   -2.5358    4.9113 C.2       1 <0>        -0.1134
     11 C10        -0.7540   -1.8809    5.8570 C.2       1 <0>        -0.0052
     12 C11        -0.9577   -2.5027    7.1711 C.2       1 <0>        -0.1177
     13 C12        -0.8175   -3.8314    7.3018 C.2       1 <0>        -0.1207
     14 C13        -0.3941   -4.6047    6.0775 C.3       1 <0>         0.1212
     15 C14         0.7102   -3.7710    5.4079 C.3       1 <0>        -0.0303
     16 C15         1.5092   -4.5663    4.4473 C.2       1 <0>        -0.1037
     17 C16         1.3510   -5.8564    4.3045 C.2       1 <0>        -0.1798
     18 C17         0.4183   -6.6745    5.1457 C.3       1 <0>         0.1447
     19 N2          0.0684   -5.9474    6.3739 N.3       1 <0>        -0.6631
     20 C18         1.1220   -7.9807    5.5306 C.3       1 <0>        -0.1404
     21 C19        -0.8396   -7.0081    4.3486 C.3       1 <0>        -0.1336
     22 C20         2.6345   -3.9213    3.6677 C.3       1 <0>        -0.1224
     23 C21        -1.3189   -0.5733    5.4912 C.ar      1 <0>        -0.1294
     24 C22        -0.8615    0.0430    4.3101 C.ar      1 <0>         0.1370
     25 C23        -1.3422    1.2862    3.9427 C.ar      1 <0>        -0.1235
     26 C24        -2.2848    1.9251    4.7269 C.ar      1 <0>        -0.0894
     27 C25        -2.7567    1.3229    5.8823 C.ar      1 <0>         0.0545
     28 C26        -2.2815    0.0727    6.2675 C.ar      1 <0>         0.1255
     29 O1         -2.7816   -0.5034    7.3921 O.3       1 <0>        -0.3208
     30 C27        -4.0063   -1.2279    7.2603 C.3       1 <0>         0.0372
     31 O2         -3.6901    1.9544    6.6457 O.3       1 <0>        -0.4814
     32 O3          0.0390   -0.6070    3.5268 O.3       1 <0>        -0.1959
     33 H1          1.0178    1.8686    0.0058 H         1 <0>         0.0779
     34 H2         -0.5293    1.8435   -0.8741 H         1 <0>         0.0738
     35 H3         -0.5176    1.8402    0.9058 H         1 <0>         0.0749
     36 H4          0.0208   -0.1520   -2.1272 H         1 <0>         0.1317
     37 H5          0.0638   -2.6373   -2.1278 H         1 <0>         0.1337
     38 H6          0.0883   -3.8303    0.0466 H         1 <0>         0.1327
     39 H7          0.0912   -3.7678    2.5316 H         1 <0>         0.1496
     40 H8         -1.1976   -1.9057    8.0378 H         1 <0>         0.1405
     41 H9         -0.9969   -4.3294    8.2364 H         1 <0>         0.1374
     42 H10        -1.2514   -4.6377    5.4035 H         1 <0>         0.0932
     43 H11         1.3930   -3.4539    6.2194 H         1 <0>         0.0895
     44 H12         1.9231   -6.3568    3.5407 H         1 <0>         0.1136
     45 H13         0.8370   -5.9469    7.0275 H         1 <0>         0.3483
     46 H14         2.0266   -7.7535    6.0946 H         1 <0>         0.0557
     47 H15         0.4542   -8.5862    6.1433 H         1 <0>         0.0682
     48 H16         1.3855   -8.5312    4.6275 H         1 <0>         0.0649
     49 H17        -0.5662   -7.5750    3.4587 H         1 <0>         0.0621
     50 H18        -1.5135   -7.6027    4.9653 H         1 <0>         0.0668
     51 H19        -1.3376   -6.0849    4.0524 H         1 <0>         0.0527
     52 H20         3.5638   -4.0100    4.2304 H         1 <0>         0.0669
     53 H21         2.7433   -4.4216    2.7055 H         1 <0>         0.0666
     54 H22         2.4070   -2.8677    3.5058 H         1 <0>         0.0653
     55 H23        -0.9822    1.7626    3.0423 H         1 <0>         0.1461
     56 H24        -2.6537    2.8972    4.4371 H         1 <0>         0.1454
     57 H25        -4.3385   -1.5618    8.2433 H         1 <0>         0.0998
     58 H26        -4.7655   -0.5811    6.8205 H         1 <0>         0.0438
     59 H27        -3.8490   -2.0933    6.6166 H         1 <0>         0.0484
     60 H28        -4.6028    1.7486    6.4013 H         1 <0>         0.3841
@<TRIPOS>BOND
     1    1    2 1
     2    1   33 1
     3    1   34 1
     4    1   35 1
     5    2    7 ar
     6    2    3 ar
     7    3    4 ar
     8    3   36 1
     9    4    5 ar
    10    4   37 1
    11    5    6 ar
    12    5   38 1
    13    6    7 ar
    14    6    8 1
    15    8    9 2
    16    8   39 1
    17    9   32 1
    18    9   10 1
    19   10   15 1
    20   10   11 2
    21   11   12 1
    22   11   23 1
    23   12   13 2
    24   12   40 1
    25   13   14 1
    26   13   41 1
    27   14   19 1
    28   14   15 1
    29   14   42 1
    30   15   16 1
    31   15   43 1
    32   16   17 2
    33   16   22 1
    34   17   18 1
    35   17   44 1
    36   18   19 1
    37   18   20 1
    38   18   21 1
    39   19   45 1
    40   20   46 1
    41   20   47 1
    42   20   48 1
    43   21   49 1
    44   21   50 1
    45   21   51 1
    46   22   52 1
    47   22   53 1
    48   22   54 1
    49   23   28 ar
    50   23   24 ar
    51   24   25 ar
    52   24   32 1
    53   25   26 ar
    54   25   55 1
    55   26   27 ar
    56   26   56 1
    57   27   28 ar
    58   27   31 1
    59   28   29 1
    60   29   30 1
    61   30   57 1
    62   30   58 1
    63   30   59 1
    64   31   60 1
@<TRIPOS>MOLECULE
CHEMBL403334
   82    87     0     0     0
SMALL
USER_CHARGES

@<TRIPOS>ATOM
      1 C1         -0.4639    3.9657   -0.5825 C.3       1 <0>        -0.1393
      2 C2          0.1031    2.7812    0.2026 C.3       1 <0>        -0.0394
      3 C3          0.8391    3.2959    1.4413 C.3       1 <0>        -0.1452
      4 C4         -1.0406    1.8612    0.6345 C.3       1 <0>        -0.1462
      5 C5          1.0631    2.0138   -0.6695 C.ar      1 <0>        -0.0068
      6 C6          0.8210    0.6844   -0.9606 C.ar      1 <0>        -0.1545
      7 C7          1.7016   -0.0195   -1.7605 C.ar      1 <0>        -0.0302
      8 C8          2.8241    0.6061   -2.2697 C.ar      1 <0>        -0.6815
      9 C9          3.0658    1.9359   -1.9794 C.ar      1 <0>        -0.0134
     10 C10         2.1830    2.6410   -1.1829 C.ar      1 <0>        -0.1310
     11 S1          3.9472   -0.2914   -3.2884 S.o2      1 <0>         2.6840
     12 O1          5.1930    0.3883   -3.2163 O.2       1 <0>        -0.9474
     13 O2          3.8056   -1.6617   -2.9397 O.2       1 <0>        -0.9513
     14 N1          3.4170   -0.1433   -4.8503 N.pl3     1 <0>        -0.9820
     15 C11         2.4426   -1.0996   -5.3853 C.3       1 <0>         0.0711
     16 C12         2.6349   -1.2149   -6.9028 C.3       1 <0>        -0.0906
     17 C13         2.4390    0.1594   -7.5064 C.2       1 <0>        -0.0388
     18 C14         1.8807    0.2648   -8.7120 C.2       1 <0>        -0.1315
     19 C15         1.7486    1.6149   -9.2829 C.2       1 <0>         0.1067
     20 C16         2.4548    2.6846   -8.7424 C.2       1 <0>        -0.2269
     21 C17         2.1354    3.8111   -9.4738 C.2       1 <0>         0.0711
     22 N2          1.2921    3.4682  -10.4225 N.2       1 <0>        -0.2824
     23 N3          1.0418    2.0882  -10.3310 N.pl3     1 <0>        -0.3019
     24 C18         0.2097    1.3398  -11.1742 C.ar      1 <0>         0.1357
     25 C19         0.5392    0.0287  -11.4911 C.ar      1 <0>        -0.1025
     26 C20        -0.2822   -0.7072  -12.3223 C.ar      1 <0>        -0.1314
     27 C21        -1.4340   -0.1383  -12.8396 C.ar      1 <0>         0.1061
     28 C22        -1.7645    1.1692  -12.5247 C.ar      1 <0>        -0.1326
     29 C23        -0.9487    1.9065  -11.6893 C.ar      1 <0>        -0.0786
     30 F1         -2.2361   -0.8596  -13.6529 F         1 <0>        -0.1290
     31 C24         3.3787    2.4985   -7.5677 C.3       1 <0>        -0.0327
     32 C25         2.8397    1.3631   -6.6944 C.3       1 <0>        -0.0209
     33 C26         3.9186    0.9467   -5.6919 C.3       1 <0>         0.1355
     34 C27         1.6274    1.8656   -5.9078 C.3       1 <0>         0.0657
     35 N4          0.8216    0.7197   -5.4653 N.3       1 <0>        -0.5104
     36 C28        -0.1514    0.3309   -6.4959 C.3       1 <0>        -0.0121
     37 C29        -0.9277   -0.8997   -6.0217 C.3       1 <0>        -0.0105
     38 N5         -1.6191   -0.5880   -4.7638 N.4       1 <0>        -0.3866
     39 C30        -0.6326   -0.2253   -3.7378 C.3       1 <0>        -0.0159
     40 C31         0.1461    1.0109   -4.1929 C.3       1 <0>         0.0014
     41 C32        -2.3787   -1.7638   -4.3185 C.3       1 <0>        -0.0494
     42 H1          0.3509    4.6211   -0.8902 H         1 <0>         0.0614
     43 H2         -0.9883    3.5990   -1.4650 H         1 <0>         0.0519
     44 H3         -1.1583    4.5207    0.0482 H         1 <0>         0.0669
     45 H4          0.1448    3.8509    2.0721 H         1 <0>         0.0673
     46 H5          1.2431    2.4521    2.0006 H         1 <0>         0.0608
     47 H6          1.6539    3.9513    1.1336 H         1 <0>         0.0617
     48 H7         -1.5649    1.4946   -0.2480 H         1 <0>         0.0531
     49 H8         -0.6366    1.0174    1.1938 H         1 <0>         0.0629
     50 H9         -1.7349    2.4163    1.2652 H         1 <0>         0.0665
     51 H10        -0.0561    0.1955   -0.5628 H         1 <0>         0.1366
     52 H11         1.5127   -1.0584   -1.9874 H         1 <0>         0.1362
     53 H12         3.9430    2.4246   -2.3769 H         1 <0>         0.1426
     54 H13         2.3698    3.6808   -0.9591 H         1 <0>         0.1355
     55 H14         2.5971   -2.0746   -4.9232 H         1 <0>         0.0744
     56 H15         1.4328   -0.7493   -5.1714 H         1 <0>         0.1347
     57 H16         3.6414   -1.5725   -7.1203 H         1 <0>         0.0931
     58 H17         1.9005   -1.9065   -7.3156 H         1 <0>         0.0856
     59 H18         1.5386   -0.6072   -9.2496 H         1 <0>         0.1373
     60 H19         2.5142    4.8068   -9.2962 H         1 <0>         0.1912
     61 H20         1.4376   -0.4152  -11.0882 H         1 <0>         0.1418
     62 H21        -0.0260   -1.7268  -12.5694 H         1 <0>         0.1495
     63 H22        -2.6630    1.6112  -12.9294 H         1 <0>         0.1491
     64 H23        -1.2090    2.9247  -11.4403 H         1 <0>         0.1448
     65 H24         4.3767    2.2434   -7.9242 H         1 <0>         0.0890
     66 H25         3.4202    3.4192   -6.9857 H         1 <0>         0.0900
     67 H26         4.1805    1.7988   -5.0646 H         1 <0>         0.0879
     68 H27         4.8023    0.6099   -6.2338 H         1 <0>         0.0799
     69 H28         1.9665    2.4287   -5.0383 H         1 <0>         0.0914
     70 H29         1.0226    2.5106   -6.5452 H         1 <0>         0.0673
     71 H30        -0.8450    1.1535   -6.6701 H         1 <0>         0.0632
     72 H31         0.3737    0.0952   -7.4215 H         1 <0>         0.1462
     73 H32        -1.6598   -1.1813   -6.7786 H         1 <0>         0.1380
     74 H33        -0.2355   -1.7261   -5.8607 H         1 <0>         0.1399
     75 H34        -1.1459   -0.0069   -2.8013 H         1 <0>         0.1385
     76 H35         0.0581   -1.0552   -3.5884 H         1 <0>         0.1393
     77 H36         0.8884    1.2713   -3.4384 H         1 <0>         0.1343
     78 H37        -0.5425    1.8447   -4.3292 H         1 <0>         0.0662
     79 H38        -1.6962   -2.5989   -4.1608 H         1 <0>         0.1256
     80 H39        -2.8918   -1.5327   -3.3850 H         1 <0>         0.1249
     81 H40        -3.1117   -2.0323   -5.0792 H         1 <0>         0.1260
     82 H41        -2.2513    0.1847   -4.9103 H         1 <0>         0.4232
@<TRIPOS>BOND
     1    1    2 1
     2    1   42 1
     3    1   43 1
     4    1   44 1
     5    2    3 1
     6    2    4 1
     7    2    5 1
     8    3   45 1
     9    3   46 1
    10    3   47 1
    11    4   48 1
    12    4   49 1
    13    4   50 1
    14    5   10 ar
    15    5    6 ar
    16    6    7 ar
    17    6   51 1
    18    7    8 ar
    19    7   52 1
    20    8    9 ar
    21    8   11 1
    22    9   10 ar
    23    9   53 1
    24   10   54 1
    25   11   12 2
    26   11   13 2
    27   11   14 1
    28   14   33 1
    29   14   15 1
    30   15   16 1
    31   15   55 1
    32   15   56 1
    33   16   17 1
    34   16   57 1
    35   16   58 1
    36   17   32 1
    37   17   18 2
    38   18   19 1
    39   18   59 1
    40   19   23 1
    41   19   20 2
    42   20   21 1
    43   20   31 1
    44   21   22 2
    45   21   60 1
    46   22   23 1
    47   23   24 1
    48   24   29 ar
    49   24   25 ar
    50   25   26 ar
    51   25   61 1
    52   26   27 ar
    53   26   62 1
    54   27   28 ar
    55   27   30 1
    56   28   29 ar
    57   28   63 1
    58   29   64 1
    59   31   32 1
    60   31   65 1
    61   31   66 1
    62   32   33 1
    63   32   34 1
    64   33   67 1
    65   33   68 1
    66   34   35 1
    67   34   69 1
    68   34   70 1
    69   35   40 1
    70   35   36 1
    71   36   37 1
    72   36   71 1
    73   36   72 1
    74   37   38 1
    75   37   73 1
    76   37   74 1
    77   38   39 1
    78   38   41 1
    79   38   82 1
    80   39   40 1
    81   39   75 1
    82   39   76 1
    83   40   77 1
    84   40   78 1
    85   41   79 1
    86   41   80 1
    87   41   81 1
@<TRIPOS>MOLECULE
CHEMBL228932
   65    68     0     0     0
SMALL
USER_CHARGES

@<TRIPOS>ATOM
      1 C1         -1.3321   -0.7401    0.1406 C.3       1 <0>        -0.1677
      2 C2          0.0021   -0.0041    0.0020 C.3       1 <0>         0.1321
      3 C3          0.7689   -0.5697   -1.1655 C.2       1 <0>        -0.0706
      4 C4          1.8578   -1.2990   -0.9576 C.2       1 <0>        -0.1440
      5 C5          2.6490   -1.8613   -2.1083 C.3       1 <0>         0.2132
      6 N1          1.7662   -2.0911   -3.2592 N.pl3     1 <0>        -0.7434
      7 C6          0.8336   -1.1051   -3.5860 C.ar      1 <0>         0.2197
      8 C7          0.3090   -0.3202   -2.5464 C.ar      1 <0>        -0.1082
      9 C8         -0.6205    0.6711   -2.8320 C.ar      1 <0>        -0.0597
     10 C9         -1.0286    0.8697   -4.1491 C.ar      1 <0>        -0.0836
     11 C10        -0.5073    0.0776   -5.1724 C.ar      1 <0>        -0.0467
     12 C11         0.4244   -0.8971   -4.8910 C.ar      1 <0>        -0.1769
     13 C12        -2.0208    1.9263   -4.4644 C.ar      1 <0>        -0.0689
     14 C13        -3.2069    2.0111   -3.7389 C.ar      1 <0>        -0.0736
     15 C14        -4.1270    2.9960   -4.0361 C.ar      1 <0>        -0.1550
     16 C15        -3.8757    3.9004   -5.0529 C.ar      1 <0>        -0.0816
     17 C16        -2.7022    3.8249   -5.7791 C.ar      1 <0>        -0.2078
     18 C17        -1.7671    2.8450   -5.4872 C.ar      1 <0>         0.1356
     19 O1         -0.6105    2.7735   -6.1964 O.3       1 <0>        -0.3076
     20 C18        -0.4199    3.7456   -7.2263 C.3       1 <0>         0.0251
     21 C19         3.2882   -3.1857   -1.6860 C.3       1 <0>        -0.1517
     22 C20         3.7480   -0.8717   -2.5007 C.3       1 <0>        -0.1573
     23 O2          0.7648   -0.1712    1.1988 O.3       1 <0>        -0.3781
     24 C21         0.5318    0.8390    2.1823 C.3       1 <0>         0.0623
     25 C22         1.3962    0.5609    3.4138 C.3       1 <0>        -0.1110
     26 C23         1.1467    1.6425    4.4668 C.3       1 <0>        -0.0785
     27 C24         1.9981    1.3686    5.6797 C.ar      1 <0>        -0.0818
     28 C25         1.5094    0.5780    6.7029 C.ar      1 <0>        -0.1170
     29 C26         2.2903    0.3267    7.8155 C.ar      1 <0>        -0.1181
     30 C27         3.5602    0.8656    7.9047 C.ar      1 <0>        -0.1244
     31 C28         4.0492    1.6555    6.8811 C.ar      1 <0>        -0.1181
     32 C29         3.2699    1.9033    5.7665 C.ar      1 <0>        -0.1170
     33 H1         -1.9308   -0.5788   -0.7559 H         1 <0>         0.0688
     34 H2         -1.1471   -1.8068    0.2669 H         1 <0>         0.0645
     35 H3         -1.8688   -0.3590    1.0094 H         1 <0>         0.0593
     36 H4         -0.1839    1.0569   -0.1652 H         1 <0>         0.0685
     37 H5          2.1821   -1.4921    0.0543 H         1 <0>         0.1329
     38 H6          1.8298   -2.9074   -3.7794 H         1 <0>         0.4015
     39 H7         -1.0242    1.2831   -2.0390 H         1 <0>         0.1210
     40 H8         -0.8295    0.2354   -6.1910 H         1 <0>         0.1220
     41 H9          0.8251   -1.5066   -5.6874 H         1 <0>         0.1232
     42 H10        -3.4065    1.3067   -2.9450 H         1 <0>         0.1289
     43 H11        -5.0465    3.0608   -3.4734 H         1 <0>         0.1250
     44 H12        -4.6000    4.6686   -5.2801 H         1 <0>         0.1244
     45 H13        -2.5118    4.5333   -6.5717 H         1 <0>         0.1284
     46 H14        -0.4349    4.7445   -6.7905 H         1 <0>         0.0550
     47 H15         0.5406    3.5759   -7.7128 H         1 <0>         0.1003
     48 H16        -1.2200    3.6577   -7.9613 H         1 <0>         0.0554
     49 H17         2.5077   -3.8914   -1.4015 H         1 <0>         0.0630
     50 H18         3.8615   -3.5941   -2.5183 H         1 <0>         0.0626
     51 H19         3.9508   -3.0151   -0.8375 H         1 <0>         0.0742
     52 H20         4.4093   -0.7071   -1.6501 H         1 <0>         0.0652
     53 H21         4.3218   -1.2776   -3.3339 H         1 <0>         0.0593
     54 H22         3.2957    0.0745   -2.7978 H         1 <0>         0.0570
     55 H23         0.7903    1.8143    1.7698 H         1 <0>         0.0497
     56 H24        -0.5201    0.8325    2.4678 H         1 <0>         0.0499
     57 H25         1.1377   -0.4143    3.8263 H         1 <0>         0.0725
     58 H26         2.4481    0.5675    3.1283 H         1 <0>         0.0725
     59 H27         1.4052    2.6178    4.0542 H         1 <0>         0.0744
     60 H28         0.0948    1.6359    4.7522 H         1 <0>         0.0744
     61 H29         0.5173    0.1569    6.6333 H         1 <0>         0.1211
     62 H30         1.9082   -0.2904    8.6153 H         1 <0>         0.1218
     63 H31         4.1700    0.6699    8.7743 H         1 <0>         0.1211
     64 H32         5.0412    2.0769    6.9509 H         1 <0>         0.1218
     65 H33         3.6534    2.5173    4.9651 H         1 <0>         0.1211
@<TRIPOS>BOND
     1    1    2 1
     2    1   33 1
     3    1   34 1
     4    1   35 1
     5    2    3 1
     6    2   23 1
     7    2   36 1
     8    3    8 1
     9    3    4 2
    10    4    5 1
    11    4   37 1
    12    5    6 1
    13    5   21 1
    14    5   22 1
    15    6    7 1
    16    6   38 1
    17    7   12 ar
    18    7    8 ar
    19    8    9 ar
    20    9   10 ar
    21    9   39 1
    22   10   11 ar
    23   10   13 1
    24   11   12 ar
    25   11   40 1
    26   12   41 1
    27   13   18 ar
    28   13   14 ar
    29   14   15 ar
    30   14   42 1
    31   15   16 ar
    32   15   43 1
    33   16   17 ar
    34   16   44 1
    35   17   18 ar
    36   17   45 1
    37   18   19 1
    38   19   20 1
    39   20   46 1
    40   20   47 1
    41   20   48 1
    42   21   49 1
    43   21   50 1
    44   21   51 1
    45   22   52 1
    46   22   53 1
    47   22   54 1
    48   23   24 1
    49   24   25 1
    50   24   55 1
    51   24   56 1
    52   25   26 1
    53   25   57 1
    54   25   58 1
    55   26   27 1
    56   26   59 1
    57   26   60 1
    58   27   32 ar
    59   27   28 ar
    60   28   29 ar
    61   28   61 1
    62   29   30 ar
    63   29   62 1
    64   30   31 ar
    65   30   63 1
    66   31   32 ar
    67   31   64 1
    68   32   65 1
@<TRIPOS>MOLECULE
CHEMBL228932__1
   65    68     0     0     0
SMALL
USER_CHARGES

@<TRIPOS>ATOM
      1 C1         -0.0187    1.5258    0.0104 C.3       1 <0>        -0.1726
      2 C2          0.0021   -0.0041    0.0020 C.3       1 <0>         0.1305
      3 C3         -1.4117   -0.5257    0.0127 C.2       1 <0>        -0.0476
      4 C4         -1.8613   -1.2122    1.0554 C.2       1 <0>        -0.1668
      5 C5         -3.2646   -1.7567    1.0821 C.3       1 <0>         0.2185
      6 N1         -4.1467   -0.9097    0.2689 N.pl3     1 <0>        -0.7449
      7 C6         -3.6858   -0.4756   -0.9753 C.ar      1 <0>         0.2169
      8 C7         -2.3057   -0.2701   -1.1346 C.ar      1 <0>        -0.1129
      9 C8         -1.8091    0.1608   -2.3575 C.ar      1 <0>        -0.0412
     10 C9         -2.6894    0.3928   -3.4121 C.ar      1 <0>        -0.0919
     11 C10        -4.0594    0.1939   -3.2392 C.ar      1 <0>        -0.0450
     12 C11        -4.5509   -0.2460   -2.0300 C.ar      1 <0>        -0.1832
     13 C12        -2.1686    0.8529   -4.7225 C.ar      1 <0>        -0.0643
     14 C13        -1.2912    1.9330   -4.7864 C.ar      1 <0>        -0.0718
     15 C14        -0.8093    2.3574   -6.0081 C.ar      1 <0>        -0.1548
     16 C15        -1.1947    1.7138   -7.1709 C.ar      1 <0>        -0.0829
     17 C16        -2.0652    0.6415   -7.1187 C.ar      1 <0>        -0.2082
     18 C17        -2.5516    0.2011   -5.8984 C.ar      1 <0>         0.1348
     19 O1         -3.4025   -0.8568   -5.8453 O.3       1 <0>        -0.3075
     20 C18        -3.7495   -1.4731   -7.0870 C.3       1 <0>         0.0254
     21 C19        -3.2679   -3.1800    0.5207 C.3       1 <0>        -0.1579
     22 C20        -3.7726   -1.7810    2.5251 C.3       1 <0>        -0.1526
     23 O2          0.6709   -0.4649   -1.1737 O.3       1 <0>        -0.3713
     24 C21         2.0796   -0.6405   -1.0099 C.3       1 <0>         0.0602
     25 C22         2.6883   -1.1335   -2.3242 C.3       1 <0>        -0.1113
     26 C23         4.1966   -1.3214   -2.1488 C.3       1 <0>        -0.0779
     27 C24         4.7962   -1.8070   -3.4434 C.ar      1 <0>        -0.0813
     28 C25         4.8851   -3.1627   -3.6983 C.ar      1 <0>        -0.1169
     29 C26         5.4351   -3.6081   -4.8857 C.ar      1 <0>        -0.1182
     30 C27         5.8957   -2.6978   -5.8185 C.ar      1 <0>        -0.1245
     31 C28         5.8059   -1.3420   -5.5639 C.ar      1 <0>        -0.1180
     32 C29         5.2520   -0.8966   -4.3783 C.ar      1 <0>        -0.1164
     33 H1          1.0039    1.9031    0.0027 H         1 <0>         0.0600
     34 H2         -0.5459    1.8868   -0.8726 H         1 <0>         0.0691
     35 H3         -0.5289    1.8773    0.9072 H         1 <0>         0.0658
     36 H4          0.5293   -0.3651    0.8851 H         1 <0>         0.0670
     37 H5         -1.2092   -1.3837    1.8991 H         1 <0>         0.1208
     38 H6         -5.0275   -0.6586    0.5881 H         1 <0>         0.4010
     39 H7         -0.7484    0.3154   -2.4901 H         1 <0>         0.1408
     40 H8         -4.7366    0.3776   -4.0602 H         1 <0>         0.1202
     41 H9         -5.6124   -0.3990   -1.9025 H         1 <0>         0.1211
     42 H10        -0.9885    2.4379   -3.8809 H         1 <0>         0.1280
     43 H11        -0.1294    3.1951   -6.0568 H         1 <0>         0.1238
     44 H12        -0.8139    2.0511   -8.1235 H         1 <0>         0.1233
     45 H13        -2.3626    0.1434   -8.0296 H         1 <0>         0.1274
     46 H14        -2.8476   -1.8468   -7.5717 H         1 <0>         0.0546
     47 H15        -4.4330   -2.3020   -6.9027 H         1 <0>         0.0996
     48 H16        -4.2327   -0.7407   -7.7337 H         1 <0>         0.0547
     49 H17        -2.6206   -3.8119    1.1287 H         1 <0>         0.0640
     50 H18        -4.2835   -3.5755    0.5394 H         1 <0>         0.0597
     51 H19        -2.9021   -3.1664   -0.5060 H         1 <0>         0.0587
     52 H20        -3.7670   -0.7687    2.9293 H         1 <0>         0.0629
     53 H21        -4.7886   -2.1750    2.5460 H         1 <0>         0.0636
     54 H22        -3.1239   -2.4165    3.1280 H         1 <0>         0.0732
     55 H23         2.5345    0.3106   -0.7330 H         1 <0>         0.0493
     56 H24         2.2656   -1.3742   -0.2256 H         1 <0>         0.0487
     57 H25         2.2334   -2.0845   -2.6011 H         1 <0>         0.0723
     58 H26         2.5024   -0.3997   -3.1085 H         1 <0>         0.0729
     59 H27         4.6515   -0.3704   -1.8719 H         1 <0>         0.0740
     60 H28         4.3825   -2.0552   -1.3645 H         1 <0>         0.0737
     61 H29         4.5252   -3.8739   -2.9695 H         1 <0>         0.1208
     62 H30         5.5052   -4.6673   -5.0845 H         1 <0>         0.1214
     63 H31         6.3260   -3.0458   -6.7459 H         1 <0>         0.1208
     64 H32         6.1661   -0.6308   -6.2925 H         1 <0>         0.1215
     65 H33         5.1785    0.1627   -4.1811 H         1 <0>         0.1210
@<TRIPOS>BOND
     1    1    2 1
     2    1   33 1
     3    1   34 1
     4    1   35 1
     5    2    3 1
     6    2   23 1
     7    2   36 1
     8    3    8 1
     9    3    4 2
    10    4    5 1
    11    4   37 1
    12    5    6 1
    13    5   21 1
    14    5   22 1
    15    6    7 1
    16    6   38 1
    17    7   12 ar
    18    7    8 ar
    19    8    9 ar
    20    9   10 ar
    21    9   39 1
    22   10   11 ar
    23   10   13 1
    24   11   12 ar
    25   11   40 1
    26   12   41 1
    27   13   18 ar
    28   13   14 ar
    29   14   15 ar
    30   14   42 1
    31   15   16 ar
    32   15   43 1
    33   16   17 ar
    34   16   44 1
    35   17   18 ar
    36   17   45 1
    37   18   19 1
    38   19   20 1
    39   20   46 1
    40   20   47 1
    41   20   48 1
    42   21   49 1
    43   21   50 1
    44   21   51 1
    45   22   52 1
    46   22   53 1
    47   22   54 1
    48   23   24 1
    49   24   25 1
    50   24   55 1
    51   24   56 1
    52   25   26 1
    53   25   57 1
    54   25   58 1
    55   26   27 1
    56   26   59 1
    57   26   60 1
    58   27   32 ar
    59   27   28 ar
    60   28   29 ar
    61   28   61 1
    62   29   30 ar
    63   29   62 1
    64   30   31 ar
    65   30   63 1
    66   31   32 ar
    67   31   64 1
    68   32   65 1
@<TRIPOS>MOLECULE
CHEMBL232223
   75    80     0     0     0
SMALL
USER_CHARGES

@<TRIPOS>ATOM
      1 C1          0.7508    2.0789    2.8167 C.3       1 <0>        -0.1194
      2 C2          0.8528    0.6447    2.3653 C.ar      1 <0>        -0.0744
      3 C3          1.3845    0.3500    1.1226 C.ar      1 <0>        -0.1201
      4 C4          1.4810   -0.9611    0.7036 C.ar      1 <0>        -0.0900
      5 C5          1.0410   -1.9906    1.5363 C.ar      1 <0>         0.0040
      6 C6          0.5057   -1.6866    2.7885 C.ar      1 <0>        -0.0905
      7 C7          0.4196   -0.3718    3.1978 C.ar      1 <0>        -0.1199
      8 C8          1.1378   -3.3535    1.1073 C.1       1 <0>        -0.1157
      9 C9          1.2173   -4.4707    0.7557 C.1       1 <0>        -0.1786
     10 C10         1.3169   -5.8716    0.3148 C.3       1 <0>         0.2595
     11 C11         0.4206   -6.1079   -0.9249 C.3       1 <0>        -0.1460
     12 C12        -0.6698   -7.1230   -0.4901 C.3       1 <0>        -0.1087
     13 C13        -0.7289   -6.9393    1.0326 C.3       1 <0>        -0.0768
     14 H1         -1.2690   -6.0276    1.2878 H         1 <0>         0.0871
     15 C14         0.7738   -6.8053    1.3944 C.3       1 <0>        -0.0332
     16 C15         0.8520   -6.2791    2.8168 C.3       1 <0>        -0.0980
     17 C16         0.3250   -7.3889    3.7406 C.3       1 <0>        -0.0091
     18 H2          0.2256   -6.9960    4.7525 H         1 <0>         0.0993
     19 C17        -1.0217   -7.8890    3.2664 C.2       1 <0>        -0.0896
     20 C18        -1.9707   -8.1107    4.1749 C.2       1 <0>        -0.1206
     21 C19        -1.7230   -7.8806    5.6451 C.3       1 <0>        -0.0773
     22 C20        -2.9640   -7.2222    6.2558 C.3       1 <0>        -0.1660
     23 C21        -4.1982   -7.9940    5.8746 C.2       1 <0>         0.3862
     24 O1         -5.1013   -8.1076    6.6790 O.2       1 <0>        -0.4636
     25 C22        -4.3271   -8.5861    4.6055 C.2       1 <0>        -0.2232
     26 C23        -3.2797   -8.6176    3.7558 C.2       1 <0>        -0.0249
     27 C24        -3.3959   -9.1688    2.3553 C.3       1 <0>         0.0949
     28 O2         -2.6477   -8.3120    1.4919 O.3       1 <0>        -0.3625
     29 C25        -1.2973   -8.1281    1.7955 C.3       1 <0>         0.1405
     30 H3         -0.7758   -9.0341    1.4871 H         1 <0>         0.0780
     31 C26         1.3040   -8.5346    3.7476 C.ar      1 <0>        -0.1162
     32 C27         2.6616   -8.2815    3.8180 C.ar      1 <0>        -0.0638
     33 C28         3.5615   -9.3290    3.8247 C.ar      1 <0>        -0.1883
     34 C29         3.1014  -10.6382    3.7604 C.ar      1 <0>         0.2128
     35 C30         1.7370  -10.8889    3.6897 C.ar      1 <0>        -0.1926
     36 C31         0.8423   -9.8368    3.6892 C.ar      1 <0>        -0.0763
     37 N1          4.0088  -11.7000    3.7665 N.pl3     1 <0>        -0.6386
     38 C32         5.4475  -11.4338    3.8406 C.3       1 <0>         0.0956
     39 C33         3.5218  -13.0801    3.6987 C.3       1 <0>         0.0924
     40 C34         1.4578   -8.1702    1.2948 C.3       1 <0>        -0.1505
     41 O3          2.6750   -6.1995    0.0149 O.3       1 <0>        -0.5358
     42 H4          1.6656    2.3618    3.3376 H         1 <0>         0.0739
     43 H5          0.6125    2.7239    1.9490 H         1 <0>         0.0689
     44 H6         -0.0993    2.1883    3.4901 H         1 <0>         0.0688
     45 H7          1.7244    1.1478    0.4789 H         1 <0>         0.1281
     46 H8          1.8959   -1.1898   -0.2669 H         1 <0>         0.1263
     47 H9          0.1634   -2.4790    3.4376 H         1 <0>         0.1259
     48 H10         0.0093   -0.1354    4.1684 H         1 <0>         0.1280
     49 H11        -0.0427   -5.1715   -1.2355 H         1 <0>         0.0746
     50 H12         1.0127   -6.5217   -1.7412 H         1 <0>         0.0841
     51 H13        -1.6290   -6.8765   -0.9453 H         1 <0>         0.0767
     52 H14        -0.3720   -8.1404   -0.7439 H         1 <0>         0.0759
     53 H15         1.8861   -6.0452    3.0699 H         1 <0>         0.0796
     54 H16         0.2333   -5.3873    2.9174 H         1 <0>         0.0710
     55 H17        -1.5355   -8.8346    6.1379 H         1 <0>         0.0846
     56 H18        -0.8614   -7.2252    5.7725 H         1 <0>         0.0935
     57 H19        -2.8680   -7.2069    7.3414 H         1 <0>         0.0973
     58 H20        -3.0489   -6.1997    5.8877 H         1 <0>         0.1006
     59 H21        -5.2712   -9.0185    4.3089 H         1 <0>         0.1397
     60 H22        -2.9866  -10.1784    2.3199 H         1 <0>         0.0772
     61 H23        -4.4417   -9.1817    2.0483 H         1 <0>         0.1193
     62 H24         3.0186   -7.2634    3.8676 H         1 <0>         0.1218
     63 H25         4.6217   -9.1307    3.8793 H         1 <0>         0.1199
     64 H26         1.3760  -11.9055    3.6393 H         1 <0>         0.1198
     65 H27        -0.2189  -10.0311    3.6387 H         1 <0>         0.1165
     66 H28         5.6699  -10.8922    4.7600 H         1 <0>         0.0534
     67 H29         5.9925  -12.3777    3.8340 H         1 <0>         0.0722
     68 H30         5.7505  -10.8333    2.9828 H         1 <0>         0.0544
     69 H31         3.4476  -13.3884    2.6558 H         1 <0>         0.0478
     70 H32         4.2162  -13.7366    4.2231 H         1 <0>         0.0660
     71 H33         2.5394  -13.1421    4.1667 H         1 <0>         0.0678
     72 H34         2.4583   -8.1074    1.7229 H         1 <0>         0.0757
     73 H35         0.8740   -8.9100    1.8426 H         1 <0>         0.0804
     74 H36         1.5285   -8.4658    0.2480 H         1 <0>         0.0507
     75 H37         3.0681   -5.6515   -0.6781 H         1 <0>         0.3794
@<TRIPOS>BOND
     1    1    2 1
     2    1   42 1
     3    1   43 1
     4    1   44 1
     5    2    7 ar
     6    2    3 ar
     7    3    4 ar
     8    3   45 1
     9    4    5 ar
    10    4   46 1
    11    5    6 ar
    12    5    8 1
    13    6    7 ar
    14    6   47 1
    15    7   48 1
    16    8    9 3
    17    9   10 1
    18   10   15 1
    19   10   11 1
    20   10   41 1
    21   11   12 1
    22   11   49 1
    23   11   50 1
    24   12   13 1
    25   12   51 1
    26   12   52 1
    27   13   14 1
    28   13   29 1
    29   13   15 1
    30   15   16 1
    31   15   40 1
    32   16   17 1
    33   16   53 1
    34   16   54 1
    35   17   18 1
    36   17   19 1
    37   17   31 1
    38   19   29 1
    39   19   20 2
    40   20   26 1
    41   20   21 1
    42   21   22 1
    43   21   55 1
    44   21   56 1
    45   22   23 1
    46   22   57 1
    47   22   58 1
    48   23   24 2
    49   23   25 1
    50   25   26 2
    51   25   59 1
    52   26   27 1
    53   27   28 1
    54   27   60 1
    55   27   61 1
    56   28   29 1
    57   29   30 1
    58   31   36 ar
    59   31   32 ar
    60   32   33 ar
    61   32   62 1
    62   33   34 ar
    63   33   63 1
    64   34   35 ar
    65   34   37 1
    66   35   36 ar
    67   35   64 1
    68   36   65 1
    69   37   38 1
    70   37   39 1
    71   38   66 1
    72   38   67 1
    73   38   68 1
    74   39   69 1
    75   39   70 1
    76   39   71 1
    77   40   72 1
    78   40   73 1
    79   40   74 1
    80   41   75 1
@<TRIPOS>MOLECULE
CHEMBL411825
   48    52     0     0     0
SMALL
USER_CHARGES

@<TRIPOS>ATOM
      1 C1         -0.0187    1.5258    0.0104 C.3       1 <0>        -0.1380
      2 C2          0.0021   -0.0041    0.0020 C.3       1 <0>        -0.0188
      3 C3         -1.4264   -0.5529   -0.0322 C.3       1 <0>        -0.0278
      4 C4         -1.9998   -0.5336    1.3608 C.2       1 <0>        -0.2267
      5 C5         -3.3075   -0.3715    1.7831 C.2       1 <0>         0.0695
      6 N1         -3.3358   -0.4388    3.0953 N.2       1 <0>        -0.2938
      7 N2         -2.0292   -0.6493    3.5682 N.pl3     1 <0>        -0.3106
      8 C6         -1.2124   -0.6933    2.4937 C.2       1 <0>         0.1190
      9 C7          0.2516   -0.8482    2.3862 C.2       1 <0>        -0.1170
     10 C8          0.7616   -0.5249    1.2033 C.2       1 <0>        -0.0604
     11 C9          2.2098   -0.6318    0.7959 C.3       1 <0>        -0.0967
     12 C10         2.2488   -0.6340   -0.7414 C.3       1 <0>        -0.1119
     13 C11         0.7896   -0.5211   -1.2177 C.3       1 <0>        -0.1053
     14 H1          0.4151   -1.4983   -1.5226 H         1 <0>         0.0829
     15 C12         0.6855    0.4728   -2.3763 C.3       1 <0>         0.1706
     16 H2          1.0967    1.4341   -2.0683 H         1 <0>         0.1109
     17 C13         1.4610   -0.0500   -3.5579 C.2       1 <0>        -0.1492
     18 C14         2.7689    0.3444   -3.7686 C.2       1 <0>        -0.1507
     19 C15         3.4383   -0.1444   -4.8411 C.2       1 <0>        -0.1694
     20 S1          2.2091   -1.1969   -5.5952 S.3       1 <0>         0.0416
     21 C16         0.8882   -0.9185   -4.4269 C.2       1 <0>        -0.1713
     22 O1         -0.6863    0.6365   -2.7415 O.3       1 <0>        -0.5470
     23 C17        -1.6446   -0.7875    4.9085 C.ar      1 <0>         0.1460
     24 C18        -0.6065   -1.6446    5.2490 C.ar      1 <0>        -0.1030
     25 C19        -0.2286   -1.7792    6.5704 C.ar      1 <0>        -0.1308
     26 C20        -0.8843   -1.0600    7.5558 C.ar      1 <0>         0.0987
     27 C21        -1.9201   -0.2050    7.2183 C.ar      1 <0>        -0.1324
     28 C22        -2.2972   -0.0633    5.8974 C.ar      1 <0>        -0.0807
     29 F1         -0.5131   -1.1930    8.8480 F         1 <0>        -0.1330
     30 H3          1.0039    1.9031    0.0027 H         1 <0>         0.0534
     31 H4         -0.5459    1.8868   -0.8726 H         1 <0>         0.0815
     32 H5         -0.5289    1.8773    0.9072 H         1 <0>         0.0538
     33 H6         -2.0389    0.0672   -0.6866 H         1 <0>         0.0881
     34 H7         -1.4141   -1.5766   -0.4065 H         1 <0>         0.0691
     35 H8         -4.1621   -0.2154    1.1415 H         1 <0>         0.1889
     36 H9          0.8609   -1.1877    3.2107 H         1 <0>         0.1382
     37 H10         2.7674    0.2224    1.1800 H         1 <0>         0.0839
     38 H11         2.6357   -1.5590    1.1793 H         1 <0>         0.0786
     39 H12         2.8262    0.2174   -1.1016 H         1 <0>         0.0717
     40 H13         2.6887   -1.5637   -1.1025 H         1 <0>         0.0713
     41 H14         3.2502    1.0322   -3.0891 H         1 <0>         0.1339
     42 H15         4.4520    0.0520   -5.1576 H         1 <0>         0.1862
     43 H16        -0.1088   -1.3334   -4.4159 H         1 <0>         0.1833
     44 H17        -1.1175   -0.1806   -3.0269 H         1 <0>         0.3718
     45 H18        -0.0952   -2.2059    4.4810 H         1 <0>         0.1420
     46 H19         0.5785   -2.4460    6.8357 H         1 <0>         0.1475
     47 H20        -2.4304    0.3547    7.9882 H         1 <0>         0.1472
     48 H21        -3.1019    0.6072    5.6340 H         1 <0>         0.1449
@<TRIPOS>BOND
     1    1    2 1
     2    1   30 1
     3    1   31 1
     4    1   32 1
     5    2   10 1
     6    2   13 1
     7    2    3 1
     8    3    4 1
     9    3   33 1
    10    3   34 1
    11    4    8 2
    12    4    5 1
    13    5    6 2
    14    5   35 1
    15    6    7 1
    16    7    8 1
    17    7   23 1
    18    8    9 1
    19    9   10 2
    20    9   36 1
    21   10   11 1
    22   11   12 1
    23   11   37 1
    24   11   38 1
    25   12   13 1
    26   12   39 1
    27   12   40 1
    28   13   14 1
    29   13   15 1
    30   15   16 1
    31   15   17 1
    32   15   22 1
    33   17   21 2
    34   17   18 1
    35   18   19 2
    36   18   41 1
    37   19   20 1
    38   19   42 1
    39   20   21 1
    40   21   43 1
    41   22   44 1
    42   23   28 ar
    43   23   24 ar
    44   24   25 ar
    45   24   45 1
    46   25   26 ar
    47   25   46 1
    48   26   27 ar
    49   26   29 1
    50   27   28 ar
    51   27   47 1
    52   28   48 1
@<TRIPOS>MOLECULE
CHEMBL205414
   53    56     0     0     0
SMALL
USER_CHARGES

@<TRIPOS>ATOM
      1 C1         -0.0187    1.5258    0.0104 C.3       1 <0>        -0.1532
      2 C2          0.0021   -0.0041    0.0020 C.3       1 <0>         0.2163
      3 C3         -1.4111   -0.5231    0.0002 C.2       1 <0>        -0.1423
      4 C4         -1.7189   -1.6750    0.5824 C.2       1 <0>        -0.0479
      5 C5         -0.6642   -2.4569    1.2583 C.ar      1 <0>        -0.1201
      6 C6         -0.8558   -3.7902    1.5969 C.ar      1 <0>        -0.0524
      7 C7          0.1650   -4.4885    2.2375 C.ar      1 <0>        -0.0835
      8 C8          1.3704   -3.8523    2.5364 C.ar      1 <0>        -0.0431
      9 C9          1.5627   -2.5274    2.1981 C.ar      1 <0>        -0.1794
     10 C10         0.5547   -1.8261    1.5602 C.ar      1 <0>         0.2209
     11 N1          0.7127   -0.4886    1.1924 N.pl3     1 <0>        -0.7438
     12 C11        -0.0301   -5.9126    2.6035 C.ar      1 <0>        -0.0682
     13 C12        -1.1763   -6.3081    3.2893 C.ar      1 <0>        -0.0718
     14 C13        -1.3534   -7.6345    3.6271 C.ar      1 <0>        -0.1545
     15 C14        -0.3961   -8.5740    3.2871 C.ar      1 <0>        -0.0811
     16 C15         0.7447   -8.1924    2.6067 C.ar      1 <0>        -0.2078
     17 C16         0.9328   -6.8650    2.2566 C.ar      1 <0>         0.1362
     18 O1          2.0512   -6.4895    1.5828 O.3       1 <0>        -0.3078
     19 C17         2.9911   -7.5170    1.2622 C.3       1 <0>         0.0252
     20 C18        -3.1376   -2.1826    0.5543 C.3       1 <0>        -0.0697
     21 S1         -3.2701   -3.5415   -0.6399 S.3       1 <0>        -0.0850
     22 C19        -4.9642   -4.0188   -0.5564 C.ar      1 <0>        -0.0848
     23 C20        -5.8326   -3.3563    0.3027 C.ar      1 <0>        -0.1237
     24 C21        -7.1597   -3.7326    0.3660 C.ar      1 <0>        -0.0886
     25 C22        -7.6251   -4.7684   -0.4251 C.ar      1 <0>        -0.0419
     26 C23        -6.7627   -5.4302   -1.2816 C.ar      1 <0>        -0.0893
     27 C24        -5.4358   -5.0547   -1.3536 C.ar      1 <0>        -0.0879
     28 Cl1        -9.2941   -5.2390   -0.3423 Cl        1 <0>        -0.0665
     29 C25         0.7230   -0.4953   -1.2549 C.3       1 <0>        -0.1588
     30 H1          1.0039    1.9031    0.0027 H         1 <0>         0.0651
     31 H2         -0.5459    1.8868   -0.8726 H         1 <0>         0.0748
     32 H3         -0.5289    1.8773    0.9072 H         1 <0>         0.0637
     33 H4         -2.1872    0.0516   -0.4833 H         1 <0>         0.1256
     34 H5         -1.7892   -4.2816    1.3656 H         1 <0>         0.1315
     35 H6          2.1573   -4.3991    3.0347 H         1 <0>         0.1227
     36 H7          2.4974   -2.0394    2.4314 H         1 <0>         0.1239
     37 H8          1.2780    0.1059    1.7101 H         1 <0>         0.4027
     38 H9         -1.9254   -5.5775    3.5566 H         1 <0>         0.1278
     39 H10        -2.2422   -7.9402    4.1591 H         1 <0>         0.1245
     40 H11        -0.5409   -9.6102    3.5549 H         1 <0>         0.1242
     41 H12         1.4884   -8.9301    2.3440 H         1 <0>         0.1283
     42 H13         3.8352   -7.0830    0.7262 H         1 <0>         0.1001
     43 H14         3.3457   -7.9847    2.1808 H         1 <0>         0.0551
     44 H15         2.5094   -8.2672    0.6351 H         1 <0>         0.0551
     45 H16        -3.4147   -2.5416    1.5455 H         1 <0>         0.0993
     46 H17        -3.8070   -1.3741    0.2604 H         1 <0>         0.0977
     47 H18        -5.4698   -2.5481    0.9205 H         1 <0>         0.1313
     48 H19        -7.8350   -3.2183    1.0337 H         1 <0>         0.1368
     49 H20        -7.1288   -6.2384   -1.8974 H         1 <0>         0.1395
     50 H21        -4.7643   -5.5683   -2.0257 H         1 <0>         0.1378
     51 H22         1.7453   -0.1173   -1.2585 H         1 <0>         0.0615
     52 H23         0.7386   -1.5852   -1.2623 H         1 <0>         0.0593
     53 H24         0.1987   -0.1335   -2.1393 H         1 <0>         0.0662
@<TRIPOS>BOND
     1    1    2 1
     2    1   30 1
     3    1   31 1
     4    1   32 1
     5    2   11 1
     6    2    3 1
     7    2   29 1
     8    3    4 2
     9    3   33 1
    10    4    5 1
    11    4   20 1
    12    5   10 ar
    13    5    6 ar
    14    6    7 ar
    15    6   34 1
    16    7    8 ar
    17    7   12 1
    18    8    9 ar
    19    8   35 1
    20    9   10 ar
    21    9   36 1
    22   10   11 1
    23   11   37 1
    24   12   17 ar
    25   12   13 ar
    26   13   14 ar
    27   13   38 1
    28   14   15 ar
    29   14   39 1
    30   15   16 ar
    31   15   40 1
    32   16   17 ar
    33   16   41 1
    34   17   18 1
    35   18   19 1
    36   19   42 1
    37   19   43 1
    38   19   44 1
    39   20   21 1
    40   20   45 1
    41   20   46 1
    42   21   22 1
    43   22   27 ar
    44   22   23 ar
    45   23   24 ar
    46   23   47 1
    47   24   25 ar
    48   24   48 1
    49   25   26 ar
    50   25   28 1
    51   26   27 ar
    52   26   49 1
    53   27   50 1
    54   29   51 1
    55   29   52 1
    56   29   53 1
@<TRIPOS>MOLECULE
CHEMBL28157
   41    44     0     0     0
SMALL
USER_CHARGES

@<TRIPOS>ATOM
      1 C1         -0.0168    1.3896    0.0097 C.ar      1 <0>        -0.0709
      2 C2          1.1633    2.0992    0.0022 C.ar      1 <0>        -0.1197
      3 C3          2.3869    1.4303   -0.0136 C.ar      1 <0>         0.1216
      4 C4          2.3982    0.0384   -0.0215 C.ar      1 <0>        -0.1153
      5 C5          1.2247   -0.6762   -0.0137 C.ar      1 <0>        -0.0488
      6 C6          0.0021   -0.0041    0.0020 C.ar      1 <0>        -0.0606
      7 C7         -1.2697   -0.7680    0.0110 C.ar      1 <0>        -0.0071
      8 C8         -2.4868   -0.0941    0.0214 C.ar      1 <0>        -0.0756
      9 C9         -3.6786   -0.8174    0.0299 C.ar      1 <0>         0.0137
     10 C10        -3.6442   -2.2139    0.0279 C.ar      1 <0>        -0.1081
     11 C11        -2.4312   -2.8768    0.0175 C.ar      1 <0>         0.1128
     12 C12        -1.2466   -2.1619    0.0033 C.ar      1 <0>        -0.1203
     13 F1         -2.4023   -4.2275    0.0156 F         1 <0>        -0.1273
     14 C13        -4.9350   -0.1305    0.0410 C.1       1 <0>         0.2474
     15 N1         -5.9318    0.4145    0.0499 N.1       1 <0>        -0.3942
     16 C14         3.8504   -0.3690   -0.0387 C.3       1 <0>        -0.0114
     17 C15         4.1906   -1.1807    1.2072 C.3       1 <0>        -0.0884
     18 C16         5.6740   -1.5573    1.1851 C.3       1 <0>        -0.1461
     19 C17         5.9722   -2.3758   -0.0728 C.3       1 <0>        -0.1074
     20 C18         5.6483   -1.5418   -1.3140 C.3       1 <0>        -0.1460
     21 C19         4.1648   -1.1654   -1.3013 C.3       1 <0>        -0.0884
     22 C20         4.6073    0.9375   -0.0386 C.2       1 <0>         0.2590
     23 N2          3.6916    1.9223   -0.0238 N.pl3     1 <0>        -0.5901
     24 S1          6.1962    1.1163   -0.0524 S.2       1 <0>        -0.3470
     25 H1         -0.9604    1.9148    0.0260 H         1 <0>         0.1407
     26 H2          1.1411    3.1789    0.0083 H         1 <0>         0.1350
     27 H3          1.2485   -1.7559   -0.0198 H         1 <0>         0.1371
     28 H4         -2.5083    0.9857    0.0233 H         1 <0>         0.1445
     29 H5         -4.5662   -2.7762    0.0348 H         1 <0>         0.1495
     30 H6         -0.3018   -2.6849   -0.0096 H         1 <0>         0.1479
     31 H7          3.9802   -0.5862    2.0963 H         1 <0>         0.0641
     32 H8          3.5861   -2.0875    1.2259 H         1 <0>         0.0791
     33 H9          6.2792   -0.6507    1.1807 H         1 <0>         0.1018
     34 H10         5.9121   -2.1492    2.0688 H         1 <0>         0.0643
     35 H11         7.0268   -2.6513   -0.0853 H         1 <0>         0.0654
     36 H12         5.3611   -3.2784   -0.0721 H         1 <0>         0.0543
     37 H13         6.2534   -0.6352   -1.3108 H         1 <0>         0.1017
     38 H14         5.8683   -2.1227   -2.2098 H         1 <0>         0.0643
     39 H15         3.5601   -2.0721   -1.3187 H         1 <0>         0.0792
     40 H16         3.9363   -0.5601   -2.1786 H         1 <0>         0.0641
     41 H17         3.9132    2.8666   -0.0206 H         1 <0>         0.4254
@<TRIPOS>BOND
     1    1    6 ar
     2    1    2 ar
     3    1   25 1
     4    2    3 ar
     5    2   26 1
     6    3   23 1
     7    3    4 ar
     8    4    5 ar
     9    4   16 1
    10    5    6 ar
    11    5   27 1
    12    6    7 1
    13    7   12 ar
    14    7    8 ar
    15    8    9 ar
    16    8   28 1
    17    9   10 ar
    18    9   14 1
    19   10   11 ar
    20   10   29 1
    21   11   12 ar
    22   11   13 1
    23   12   30 1
    24   14   15 3
    25   16   21 1
    26   16   17 1
    27   16   22 1
    28   17   18 1
    29   17   31 1
    30   17   32 1
    31   18   19 1
    32   18   33 1
    33   18   34 1
    34   19   20 1
    35   19   35 1
    36   19   36 1
    37   20   21 1
    38   20   37 1
    39   20   38 1
    40   21   39 1
    41   21   40 1
    42   22   23 1
    43   22   24 2
    44   23   41 1
@<TRIPOS>MOLECULE
CHEMBL196374
   53    55     0     0     0
SMALL
USER_CHARGES

@<TRIPOS>ATOM
      1 C1         -1.9509    5.3576    0.4595 C.3       1 <0>        -0.1040
      2 C2         -1.4302    4.1028    1.1115 C.2       1 <0>         0.1573
      3 C3         -2.3329    2.9719    1.3747 C.ar      1 <0>        -0.0554
      4 C4         -3.6007    2.8764    0.8210 C.ar      1 <0>        -0.1015
      5 C5         -4.3949    1.7783    1.1252 C.ar      1 <0>         0.1726
      6 C6         -3.9291    0.7787    1.9783 C.ar      1 <0>        -0.1057
      7 C7         -2.6696    0.8599    2.5334 C.ar      1 <0>        -0.0259
      8 C8         -1.8624    1.9505    2.2357 C.ar      1 <0>        -0.1621
      9 C9         -0.5007    2.1129    2.7737 C.2       1 <0>         0.4866
     10 O1         -0.1693    1.6064    3.8287 O.2       1 <0>        -0.4333
     11 O2          0.3641    2.8499    2.0415 O.3       1 <0>        -0.1614
     12 N1         -0.1803    4.0060    1.4418 N.2       1 <0>        -0.2536
     13 N2         -5.6714    1.6747    0.5720 N.am      1 <0>        -0.6574
     14 C10        -6.1583    0.4676    0.2223 C.2       1 <0>         0.4903
     15 O3         -5.5170   -0.5353    0.4541 O.2       1 <0>        -0.4753
     16 C11        -7.4997    0.3641   -0.4568 C.3       1 <0>         0.0865
     17 C12        -8.0987   -1.0191   -0.1945 C.3       1 <0>        -0.1442
     18 C13        -9.5159   -1.0783   -0.7682 C.3       1 <0>        -0.0160
     19 C14       -10.3452   -2.0904    0.0246 C.3       1 <0>        -0.1360
     20 C15       -10.1650    0.3035   -0.6674 C.3       1 <0>        -0.1739
     21 C16        -9.4554   -1.5006   -2.2136 C.ar      1 <0>        -0.0457
     22 C17        -8.3420   -2.1630   -2.6941 C.ar      1 <0>        -0.1726
     23 C18        -8.2863   -2.5515   -4.0216 C.ar      1 <0>         0.1063
     24 C19        -9.3458   -2.2767   -4.8698 C.ar      1 <0>        -0.1500
     25 C20       -10.4600   -1.6146   -4.3921 C.ar      1 <0>        -0.1059
     26 C21       -10.5196   -1.2298   -3.0606 C.ar      1 <0>         0.0973
     27 O4        -11.6179   -0.5831   -2.5878 O.3       1 <0>        -0.4872
     28 F1         -7.1972   -3.1991   -4.4901 F         1 <0>        -0.1356
     29 C22        -7.3257    0.5672   -1.9632 C.3       1 <0>         0.4722
     30 F2         -6.4498   -0.4009   -2.4662 F         1 <0>        -0.1588
     31 F3         -8.5673    0.4468   -2.5965 F         1 <0>        -0.1434
     32 F4         -6.8007    1.8413   -2.2044 F         1 <0>        -0.1717
     33 O5         -8.3746    1.3682    0.0613 O.3       1 <0>        -0.5168
     34 H1         -1.1363    6.0727    0.3452 H         1 <0>         0.0949
     35 H2         -2.3611    5.1145   -0.5207 H         1 <0>         0.0999
     36 H3         -2.7322    5.7934    1.0823 H         1 <0>         0.0991
     37 H4         -3.9667    3.6479    0.1597 H         1 <0>         0.1523
     38 H5         -4.5609   -0.0669    2.2068 H         1 <0>         0.1553
     39 H6         -2.3140    0.0828    3.1938 H         1 <0>         0.1524
     40 H7         -6.2085    2.4714    0.4391 H         1 <0>         0.4249
     41 H8         -7.4811   -1.7792   -0.6728 H         1 <0>         0.1087
     42 H9         -8.1336   -1.2022    0.8795 H         1 <0>         0.1043
     43 H10       -10.4626   -1.7402    1.0501 H         1 <0>         0.0632
     44 H11       -11.3266   -2.1974   -0.4374 H         1 <0>         0.0710
     45 H12        -9.8372   -3.0548    0.0260 H         1 <0>         0.0572
     46 H13        -9.6650    0.9905   -1.3502 H         1 <0>         0.0870
     47 H14       -11.2194    0.2299   -0.9337 H         1 <0>         0.0741
     48 H15       -10.0730    0.6746    0.3533 H         1 <0>         0.0671
     49 H16        -7.5147   -2.3774   -2.0338 H         1 <0>         0.1441
     50 H17        -9.3008   -2.5797   -5.9055 H         1 <0>         0.1393
     51 H18       -11.2860   -1.4001   -5.0540 H         1 <0>         0.1394
     52 H19       -11.5700    0.3798   -2.6624 H         1 <0>         0.3893
     53 H20        -8.5307    1.3007    1.0132 H         1 <0>         0.4003
@<TRIPOS>BOND
     1    1    2 1
     2    1   34 1
     3    1   35 1
     4    1   36 1
     5    2   12 2
     6    2    3 1
     7    3    8 ar
     8    3    4 ar
     9    4    5 ar
    10    4   37 1
    11    5    6 ar
    12    5   13 1
    13    6    7 ar
    14    6   38 1
    15    7    8 ar
    16    7   39 1
    17    8    9 1
    18    9   10 2
    19    9   11 1
    20   11   12 1
    21   13   14 am
    22   13   40 1
    23   14   15 2
    24   14   16 1
    25   16   17 1
    26   16   29 1
    27   16   33 1
    28   17   18 1
    29   17   41 1
    30   17   42 1
    31   18   19 1
    32   18   20 1
    33   18   21 1
    34   19   43 1
    35   19   44 1
    36   19   45 1
    37   20   46 1
    38   20   47 1
    39   20   48 1
    40   21   26 ar
    41   21   22 ar
    42   22   23 ar
    43   22   49 1
    44   23   24 ar
    45   23   28 1
    46   24   25 ar
    47   24   50 1
    48   25   26 ar
    49   25   51 1
    50   26   27 1
    51   27   52 1
    52   29   30 1
    53   29   31 1
    54   29   32 1
    55   33   53 1
@<TRIPOS>MOLECULE
CHEMBL196374__1
   53    55     0     0     0
SMALL
USER_CHARGES

@<TRIPOS>ATOM
      1 C1         -2.2381   -1.0940   -8.1038 C.3       1 <0>        -0.1035
      2 C2         -1.5936   -1.7498   -6.9097 C.2       1 <0>         0.1573
      3 C3         -2.1819   -1.5980   -5.5703 C.ar      1 <0>        -0.0564
      4 C4         -3.4578   -1.0965   -5.3613 C.ar      1 <0>        -0.1016
      5 C5         -3.9380   -0.9782   -4.0634 C.ar      1 <0>         0.1727
      6 C6         -3.1507   -1.3571   -2.9769 C.ar      1 <0>        -0.1049
      7 C7         -1.8815   -1.8598   -3.1708 C.ar      1 <0>        -0.0256
      8 C8         -1.3888   -1.9872   -4.4633 C.ar      1 <0>        -0.1620
      9 C9         -0.0506   -2.5248   -4.7638 C.2       1 <0>         0.4863
     10 O1          0.8599   -2.4493   -3.9608 O.2       1 <0>        -0.4328
     11 O2          0.1196   -3.1062   -5.9722 O.3       1 <0>        -0.1617
     12 N1         -0.5175   -2.4583   -7.0525 N.2       1 <0>        -0.2541
     13 N2         -5.2206   -0.4749   -3.8447 N.am      1 <0>        -0.6568
     14 C10        -5.9783   -0.9715   -2.8467 C.2       1 <0>         0.4909
     15 O3         -5.5151   -1.7943   -2.0856 O.2       1 <0>        -0.4778
     16 C11        -7.4009   -0.5043   -2.6767 C.3       1 <0>         0.0864
     17 C12        -8.2093   -1.5838   -1.9541 C.3       1 <0>        -0.1402
     18 C13        -9.6787   -1.1627   -1.8891 C.3       1 <0>        -0.0203
     19 C14       -10.0618   -0.4464   -3.1857 C.3       1 <0>        -0.1527
     20 C15       -10.5573   -2.4029   -1.7129 C.3       1 <0>        -0.1361
     21 C16        -9.8835   -0.2320   -0.7217 C.ar      1 <0>        -0.0669
     22 C17        -9.0040   -0.2559    0.3438 C.ar      1 <0>        -0.1584
     23 C18        -9.1915    0.5992    1.4161 C.ar      1 <0>         0.0980
     24 C19       -10.2607    1.4792    1.4229 C.ar      1 <0>        -0.1442
     25 C20       -11.1414    1.5051    0.3592 C.ar      1 <0>        -0.1133
     26 C21       -10.9514    0.6527   -0.7188 C.ar      1 <0>         0.1076
     27 O4        -11.8143    0.6811   -1.7689 O.3       1 <0>        -0.4818
     28 F1         -8.3308    0.5749    2.4572 F         1 <0>        -0.1360
     29 C22        -7.4194    0.7844   -1.8522 C.3       1 <0>         0.4696
     30 F2         -6.5360    1.7113   -2.4158 F         1 <0>        -0.1748
     31 F3         -8.7133    1.3165   -1.8476 F         1 <0>        -0.1377
     32 F4         -7.0259    0.5037   -0.5394 F         1 <0>        -0.1573
     33 O5         -7.9776   -0.2568   -3.9606 O.3       1 <0>        -0.5147
     34 H1         -1.6622   -1.3249   -9.0000 H         1 <0>         0.0947
     35 H2         -3.2552   -1.4685   -8.2190 H         1 <0>         0.0995
     36 H3         -2.2629   -0.0144   -7.9560 H         1 <0>         0.0991
     37 H4         -4.0720   -0.8012   -6.1992 H         1 <0>         0.1524
     38 H5         -3.5384   -1.2556   -1.9741 H         1 <0>         0.1553
     39 H6         -1.2759   -2.1515   -2.3255 H         1 <0>         0.1524
     40 H7         -5.5671    0.2324   -4.4108 H         1 <0>         0.4253
     41 H8         -8.1247   -2.5253   -2.4967 H         1 <0>         0.1031
     42 H9         -7.8228   -1.7112   -0.9429 H         1 <0>         0.1070
     43 H10        -9.7161   -1.0299   -4.0390 H         1 <0>         0.0539
     44 H11       -11.1453   -0.3381   -3.2345 H         1 <0>         0.0714
     45 H12        -9.5969    0.5393   -3.2072 H         1 <0>         0.0918
     46 H13       -10.3454   -2.8642   -0.7484 H         1 <0>         0.0592
     47 H14       -11.6073   -2.1132   -1.7543 H         1 <0>         0.0623
     48 H15       -10.3451   -3.1148   -2.5106 H         1 <0>         0.0653
     49 H16        -8.1701   -0.9422    0.3400 H         1 <0>         0.1469
     50 H17       -10.4062    2.1453    2.2605 H         1 <0>         0.1389
     51 H18       -11.9754    2.1913    0.3649 H         1 <0>         0.1390
     52 H19       -12.5668    0.0810   -1.6760 H         1 <0>         0.3855
     53 H20        -7.9989   -1.0319   -4.5382 H         1 <0>         0.3995
@<TRIPOS>BOND
     1    1    2 1
     2    1   34 1
     3    1   35 1
     4    1   36 1
     5    2   12 2
     6    2    3 1
     7    3    8 ar
     8    3    4 ar
     9    4    5 ar
    10    4   37 1
    11    5    6 ar
    12    5   13 1
    13    6    7 ar
    14    6   38 1
    15    7    8 ar
    16    7   39 1
    17    8    9 1
    18    9   10 2
    19    9   11 1
    20   11   12 1
    21   13   14 am
    22   13   40 1
    23   14   15 2
    24   14   16 1
    25   16   17 1
    26   16   29 1
    27   16   33 1
    28   17   18 1
    29   17   41 1
    30   17   42 1
    31   18   19 1
    32   18   20 1
    33   18   21 1
    34   19   43 1
    35   19   44 1
    36   19   45 1
    37   20   46 1
    38   20   47 1
    39   20   48 1
    40   21   26 ar
    41   21   22 ar
    42   22   23 ar
    43   22   49 1
    44   23   24 ar
    45   23   28 1
    46   24   25 ar
    47   24   50 1
    48   25   26 ar
    49   25   51 1
    50   26   27 1
    51   27   52 1
    52   29   30 1
    53   29   31 1
    54   29   32 1
    55   33   53 1
@<TRIPOS>MOLECULE
CHEMBL404496
   47    50     0     0     0
SMALL
USER_CHARGES

@<TRIPOS>ATOM
      1 C1         -0.3199    1.3098   -0.2802 C.3       1 <0>        -0.1066
      2 C2         -0.2768   -0.1935   -0.1823 C.ar      1 <0>        -0.1538
      3 C3         -0.3756   -0.9592   -1.3244 C.ar      1 <0>        -0.0569
      4 C4         -0.3353   -2.3494   -1.2316 C.ar      1 <0>        -0.0516
      5 C5         -0.1973   -2.9584    0.0148 C.ar      1 <0>         0.0184
      6 C6         -0.0994   -2.1868    1.1592 C.ar      1 <0>        -0.1373
      7 C7         -0.1319   -0.8034    1.0598 C.ar      1 <0>         0.2330
      8 N1         -0.0205   -0.0002    2.2014 N.pl3     1 <0>        -0.7372
      9 C8         -0.1664   -0.6218    3.5246 C.3       1 <0>         0.1718
     10 C9          0.6486   -1.9217    3.5242 C.3       1 <0>        -0.1190
     11 C10         0.0434   -2.8770    2.4904 C.3       1 <0>        -0.0404
     12 C11         0.9673   -4.0867    2.3354 C.3       1 <0>        -0.1580
     13 C12        -1.6403   -0.9343    3.7905 C.3       1 <0>        -0.1620
     14 C13         0.3667    0.3237    4.6029 C.3       1 <0>        -0.1535
     15 Cl1        -0.1487   -4.6898    0.1315 Cl        1 <0>        -0.0563
     16 C14        -0.4395   -3.1789   -2.4562 C.2       1 <0>        -0.1275
     17 C15         0.4525   -3.2332   -3.4744 C.2       1 <0>         0.0681
     18 N2          0.0140   -4.1106   -4.4262 N.pl3     1 <0>        -0.5937
     19 H1          0.4839   -4.3181   -5.2491 H         1 <0>         0.4166
     20 C16        -1.1922   -4.6581   -4.0467 C.ar      1 <0>         0.0948
     21 C17        -1.5288   -4.1074   -2.7981 C.ar      1 <0>        -0.0827
     22 C18        -2.7100   -4.4884   -2.1632 C.ar      1 <0>        -0.0636
     23 C19        -3.5409   -5.4077   -2.7639 C.ar      1 <0>        -0.1473
     24 C20        -3.2075   -5.9548   -3.9950 C.ar      1 <0>        -0.0988
     25 C21        -2.0476   -5.5821   -4.6382 C.ar      1 <0>        -0.1325
     26 H2          0.6915    1.6943   -0.4122 H         1 <0>         0.0664
     27 H3         -0.9334    1.6009   -1.1327 H         1 <0>         0.0686
     28 H4         -0.7487    1.7212    0.6335 H         1 <0>         0.0612
     29 H5         -0.4841   -0.4834   -2.2878 H         1 <0>         0.1287
     30 H6          0.1505    0.9511    2.1200 H         1 <0>         0.4016
     31 H7          1.6849   -1.7030    3.2668 H         1 <0>         0.0717
     32 H8          0.6048   -2.3805    4.5120 H         1 <0>         0.0775
     33 H9         -0.9366   -3.2144    2.8276 H         1 <0>         0.0826
     34 H10         1.7116   -3.8793    1.5665 H         1 <0>         0.0582
     35 H11         1.4688   -4.2846    3.2826 H         1 <0>         0.0492
     36 H12         0.3796   -4.9580    2.0464 H         1 <0>         0.0740
     37 H13        -2.0098   -1.6196    3.0277 H         1 <0>         0.0628
     38 H14        -1.7424   -1.3951    4.7731 H         1 <0>         0.0653
     39 H15        -2.2187   -0.0110    3.7604 H         1 <0>         0.0579
     40 H16        -0.1966    1.2566    4.5788 H         1 <0>         0.0617
     41 H17         0.2559   -0.1425    5.5819 H         1 <0>         0.0736
     42 H18         1.4204    0.5306    4.4161 H         1 <0>         0.0627
     43 H19         1.3714   -2.6680   -3.5264 H         1 <0>         0.1707
     44 H20        -2.9719   -4.0650   -1.2048 H         1 <0>         0.1179
     45 H21        -4.4566   -5.7046   -2.2743 H         1 <0>         0.1214
     46 H22        -3.8669   -6.6751   -4.4562 H         1 <0>         0.1240
     47 H23        -1.7971   -6.0153   -5.5953 H         1 <0>         0.1183
@<TRIPOS>BOND
     1    1    2 1
     2    1   26 1
     3    1   27 1
     4    1   28 1
     5    2    7 ar
     6    2    3 ar
     7    3    4 ar
     8    3   29 1
     9    4    5 ar
    10    4   16 1
    11    5    6 ar
    12    5   15 1
    13    6   11 1
    14    6    7 ar
    15    7    8 1
    16    8    9 1
    17    8   30 1
    18    9   10 1
    19    9   13 1
    20    9   14 1
    21   10   11 1
    22   10   31 1
    23   10   32 1
    24   11   12 1
    25   11   33 1
    26   12   34 1
    27   12   35 1
    28   12   36 1
    29   13   37 1
    30   13   38 1
    31   13   39 1
    32   14   40 1
    33   14   41 1
    34   14   42 1
    35   16   21 1
    36   16   17 2
    37   17   18 1
    38   17   43 1
    39   18   19 1
    40   18   20 1
    41   20   25 ar
    42   20   21 ar
    43   21   22 ar
    44   22   23 ar
    45   22   44 1
    46   23   24 ar
    47   23   45 1
    48   24   25 ar
    49   24   46 1
    50   25   47 1
@<TRIPOS>MOLECULE
CHEMBL404496__1
   47    50     0     0     0
SMALL
USER_CHARGES

@<TRIPOS>ATOM
      1 C1         -0.1480    1.5788    0.1579 C.3       1 <0>        -0.1033
      2 C2         -0.1211    0.0732    0.1005 C.ar      1 <0>        -0.1538
      3 C3         -0.1675   -0.5685   -1.1187 C.ar      1 <0>        -0.0570
      4 C4         -0.1419   -1.9613   -1.1696 C.ar      1 <0>        -0.0514
      5 C5         -0.0677   -2.6980    0.0116 C.ar      1 <0>         0.0184
      6 C6         -0.0203   -2.0507    1.2337 C.ar      1 <0>        -0.1370
      7 C7         -0.0438   -0.6642    1.2779 C.ar      1 <0>         0.2330
      8 N1         -0.0007    0.0143    2.5021 N.pl3     1 <0>        -0.7379
      9 C8          0.3769   -0.7273    3.7127 C.3       1 <0>         0.1730
     10 C9         -0.3798   -2.0619    3.7000 C.3       1 <0>        -0.1200
     11 C10         0.0648   -2.8767    2.4903 C.3       1 <0>        -0.0403
     12 C11        -0.8264   -4.1116    2.3441 C.3       1 <0>        -0.1570
     13 C12        -0.0113    0.0767    4.9551 C.3       1 <0>        -0.1534
     14 C13         1.8848   -0.9866    3.7123 C.3       1 <0>        -0.1615
     15 Cl1        -0.0352   -4.4326   -0.0508 Cl        1 <0>        -0.0563
     16 C14        -0.1939   -2.6579   -2.4775 C.2       1 <0>        -0.1276
     17 C15         0.7450   -2.6171   -3.4532 C.2       1 <0>         0.0681
     18 N2          0.3458   -3.3856   -4.5106 N.pl3     1 <0>        -0.5937
     19 H1          0.8526   -3.5123   -5.3280 H         1 <0>         0.4166
     20 C16        -0.8811   -3.9548   -4.2467 C.ar      1 <0>         0.0947
     21 C17        -1.2725   -3.5325   -2.9645 C.ar      1 <0>        -0.0825
     22 C18        -2.4853   -3.9629   -2.4283 C.ar      1 <0>        -0.0634
     23 C19        -3.2935   -4.8046   -3.1595 C.ar      1 <0>        -0.1473
     24 C20        -2.9060   -5.2250   -4.4241 C.ar      1 <0>        -0.0988
     25 C21        -1.7142   -4.8019   -4.9704 C.ar      1 <0>        -0.1325
     26 H2          0.8715    1.9622    0.1172 H         1 <0>         0.0678
     27 H3         -0.7154    1.9647   -0.6890 H         1 <0>         0.0681
     28 H4         -0.6195    1.8986    1.0872 H         1 <0>         0.0581
     29 H5         -0.2239    0.0060   -2.0314 H         1 <0>         0.1288
     30 H6         -0.2164    0.9588    2.5499 H         1 <0>         0.4010
     31 H7         -0.1623   -2.6138    4.6145 H         1 <0>         0.0780
     32 H8         -1.4512   -1.8736    3.6310 H         1 <0>         0.0706
     33 H9          1.0963   -3.1942    2.6428 H         1 <0>         0.0802
     34 H10        -0.2571   -4.9179    1.8815 H         1 <0>         0.0744
     35 H11        -1.1719   -4.4289    3.3280 H         1 <0>         0.0493
     36 H12        -1.6852   -3.8680    1.7185 H         1 <0>         0.0588
     37 H13        -1.0881    0.2453    4.9570 H         1 <0>         0.0628
     38 H14         0.2712   -0.4781    5.8498 H         1 <0>         0.0736
     39 H15         0.5066    1.0358    4.9437 H         1 <0>         0.0619
     40 H16         2.4170   -0.0356    3.6915 H         1 <0>         0.0579
     41 H17         2.1591   -1.5369    4.6123 H         1 <0>         0.0652
     42 H18         2.1526   -1.5721    2.8327 H         1 <0>         0.0623
     43 H19         1.6695   -2.0609   -3.4033 H         1 <0>         0.1707
     44 H20        -2.7893   -3.6381   -1.4442 H         1 <0>         0.1179
     45 H21        -4.2335   -5.1396   -2.7466 H         1 <0>         0.1214
     46 H22        -3.5481   -5.8855   -4.9880 H         1 <0>         0.1239
     47 H23        -1.4217   -5.1364   -5.9547 H         1 <0>         0.1183
@<TRIPOS>BOND
     1    1    2 1
     2    1   26 1
     3    1   27 1
     4    1   28 1
     5    2    7 ar
     6    2    3 ar
     7    3    4 ar
     8    3   29 1
     9    4    5 ar
    10    4   16 1
    11    5    6 ar
    12    5   15 1
    13    6   11 1
    14    6    7 ar
    15    7    8 1
    16    8    9 1
    17    8   30 1
    18    9   10 1
    19    9   13 1
    20    9   14 1
    21   10   11 1
    22   10   31 1
    23   10   32 1
    24   11   12 1
    25   11   33 1
    26   12   34 1
    27   12   35 1
    28   12   36 1
    29   13   37 1
    30   13   38 1
    31   13   39 1
    32   14   40 1
    33   14   41 1
    34   14   42 1
    35   16   21 1
    36   16   17 2
    37   17   18 1
    38   17   43 1
    39   18   19 1
    40   18   20 1
    41   20   25 ar
    42   20   21 ar
    43   21   22 ar
    44   22   23 ar
    45   22   44 1
    46   23   24 ar
    47   23   45 1
    48   24   25 ar
    49   24   46 1
    50   25   47 1
@<TRIPOS>MOLECULE
CHEMBL233789
   54    59     0     0     0
SMALL
USER_CHARGES

@<TRIPOS>ATOM
      1 C1         -0.3327    1.4699   -0.0806 C.3       1 <0>        -0.1216
      2 C2         -0.1923   -0.0536   -0.0734 C.3       1 <0>        -0.0243
      3 C3         -1.5632   -0.7126   -0.2444 C.3       1 <0>        -0.0304
      4 C4         -2.2723   -0.7367    1.0846 C.2       1 <0>        -0.2275
      5 C5         -3.6242   -0.6770    1.3736 C.2       1 <0>         0.0695
      6 N1         -3.7778   -0.7450    2.6770 N.2       1 <0>        -0.2934
      7 N2         -2.5124   -0.8521    3.2792 N.pl3     1 <0>        -0.3102
      8 C6         -1.5917   -0.8331    2.2914 C.2       1 <0>         0.1218
      9 C7         -0.1167   -0.8731    2.3311 C.2       1 <0>        -0.1185
     10 C8          0.4819   -0.5122    1.2018 C.2       1 <0>        -0.0558
     11 C9          1.9674   -0.5058    0.9411 C.3       1 <0>        -0.0943
     12 C10         2.1595   -0.5066   -0.5846 C.3       1 <0>        -0.1155
     13 C11         0.7507   -0.5087   -1.2044 C.3       1 <0>        -0.1048
     14 H1          0.4855   -1.5126   -1.5363 H         1 <0>         0.0891
     15 C12         0.6855    0.4728   -2.3763 C.3       1 <0>         0.1708
     16 H2         -0.3521    0.6031   -2.6837 H         1 <0>         0.1112
     17 C13         1.4873   -0.0698   -3.5312 C.2       1 <0>        -0.1316
     18 C14         2.7640    0.3017   -3.7030 C.2       1 <0>        -0.1526
     19 S1          3.2637   -0.5874   -5.1650 S.3       1 <0>         0.0356
     20 C15         1.7425   -1.4345   -5.5055 C.ar      1 <0>        -0.1121
     21 C16         0.8853   -1.0072   -4.4679 C.ar      1 <0>        -0.0821
     22 C17        -0.4283   -1.5325   -4.4744 C.ar      1 <0>        -0.0765
     23 C18        -0.8222   -2.4074   -5.4380 C.ar      1 <0>        -0.1195
     24 C19         0.0419   -2.8156   -6.4449 C.ar      1 <0>        -0.0932
     25 C20         1.3298   -2.3180   -6.4792 C.ar      1 <0>        -0.0779
     26 O1          1.2246    1.7331   -1.9726 O.3       1 <0>        -0.5420
     27 C21        -2.2537   -0.9584    4.6522 C.ar      1 <0>         0.1457
     28 C22        -1.1911   -1.7313    5.1016 C.ar      1 <0>        -0.1028
     29 C23        -0.9375   -1.8345    6.4551 C.ar      1 <0>        -0.1308
     30 C24        -1.7419   -1.1678    7.3641 C.ar      1 <0>         0.0990
     31 C25        -2.8024   -0.3968    6.9180 C.ar      1 <0>        -0.1324
     32 C26        -3.0559   -0.2865    5.5650 C.ar      1 <0>        -0.0805
     33 F1         -1.4922   -1.2700    8.6879 F         1 <0>        -0.1330
     34 H3          0.6532    1.9260    0.0098 H         1 <0>         0.0701
     35 H4         -0.7957    1.7877   -1.0148 H         1 <0>         0.0676
     36 H5         -0.9554    1.7814    0.7580 H         1 <0>         0.0441
     37 H6         -2.1539   -0.1429   -0.9618 H         1 <0>         0.0788
     38 H7         -1.4341   -1.7325   -0.6066 H         1 <0>         0.0723
     39 H8         -4.4202   -0.5889    0.6490 H         1 <0>         0.1886
     40 H9          0.4321   -1.1631    3.2150 H         1 <0>         0.1386
     41 H10         2.4159    0.3898    1.3711 H         1 <0>         0.0852
     42 H11         2.4239   -1.3964    1.3731 H         1 <0>         0.0790
     43 H12         2.7019    0.3870   -0.8933 H         1 <0>         0.0661
     44 H13         2.7040   -1.3994   -0.8920 H         1 <0>         0.0727
     45 H14         3.3501    0.9790   -3.0995 H         1 <0>         0.1864
     46 H15        -1.1259   -1.2356   -3.7053 H         1 <0>         0.1253
     47 H16        -1.8305   -2.7939   -5.4194 H         1 <0>         0.1291
     48 H17        -0.2926   -3.5117   -7.1997 H         1 <0>         0.1354
     49 H18         2.0121   -2.6281   -7.2569 H         1 <0>         0.1319
     50 H19         2.1727    1.7129   -1.7834 H         1 <0>         0.3677
     51 H20        -0.5638   -2.2517    4.3930 H         1 <0>         0.1421
     52 H21        -0.1114   -2.4358    6.8050 H         1 <0>         0.1476
     53 H22        -3.4288    0.1220    7.6284 H         1 <0>         0.1472
     54 H23        -3.8800    0.3187    5.2172 H         1 <0>         0.1449
@<TRIPOS>BOND
     1    1    2 1
     2    1   34 1
     3    1   35 1
     4    1   36 1
     5    2   10 1
     6    2   13 1
     7    2    3 1
     8    3    4 1
     9    3   37 1
    10    3   38 1
    11    4    8 2
    12    4    5 1
    13    5    6 2
    14    5   39 1
    15    6    7 1
    16    7    8 1
    17    7   27 1
    18    8    9 1
    19    9   10 2
    20    9   40 1
    21   10   11 1
    22   11   12 1
    23   11   41 1
    24   11   42 1
    25   12   13 1
    26   12   43 1
    27   12   44 1
    28   13   14 1
    29   13   15 1
    30   15   16 1
    31   15   17 1
    32   15   26 1
    33   17   21 1
    34   17   18 2
    35   18   19 1
    36   18   45 1
    37   19   20 1
    38   20   25 ar
    39   20   21 ar
    40   21   22 ar
    41   22   23 ar
    42   22   46 1
    43   23   24 ar
    44   23   47 1
    45   24   25 ar
    46   24   48 1
    47   25   49 1
    48   26   50 1
    49   27   32 ar
    50   27   28 ar
    51   28   29 ar
    52   28   51 1
    53   29   30 ar
    54   29   52 1
    55   30   31 ar
    56   30   33 1
    57   31   32 ar
    58   31   53 1
    59   32   54 1
@<TRIPOS>MOLECULE
CHEMBL403173
   62    67     0     0     0
SMALL
USER_CHARGES

@<TRIPOS>ATOM
      1 C1         -0.0167    1.3821    0.0096 C.ar      1 <0>        -0.0672
      2 C2          1.1937    2.0586    0.0017 C.ar      1 <0>        -0.1352
      3 C3          2.3701    1.3338   -0.0134 C.ar      1 <0>         0.1117
      4 N1          2.3500    0.0151   -0.0207 N.ar      1 <0>        -0.4661
      5 C4          1.2181   -0.6611   -0.0136 C.ar      1 <0>         0.0533
      6 C5          0.0021   -0.0041    0.0020 C.ar      1 <0>        -0.1473
      7 C6          1.2505   -2.1677   -0.0230 C.3       1 <0>         0.0545
      8 N2          1.3680   -2.6463   -1.4069 N.4       1 <0>        -0.3833
      9 C7          0.1711   -2.2522   -2.1579 C.3       1 <0>        -0.0108
     10 C8          0.3368   -2.6353   -3.6349 C.3       1 <0>        -0.0961
     11 C9          0.6921   -4.1030   -3.6917 C.2       1 <0>        -0.1312
     12 C10         0.0327   -4.9435   -4.4632 C.2       1 <0>        -0.0378
     13 C11         0.3212   -6.3819   -4.5158 C.2       1 <0>         0.0960
     14 C12         1.2779   -6.9628   -3.7131 C.2       1 <0>        -0.1992
     15 C13         1.2976   -8.3285   -3.9828 C.2       1 <0>         0.0686
     16 N3          0.4070   -8.5842   -4.9086 N.2       1 <0>        -0.2576
     17 N4         -0.2221   -7.3873   -5.2718 N.pl3     1 <0>        -0.3054
     18 C14        -1.2284   -7.2433   -6.2362 C.ar      1 <0>         0.1336
     19 C15        -2.2361   -6.3053   -6.0549 C.ar      1 <0>        -0.1048
     20 C16        -3.2270   -6.1650   -7.0065 C.ar      1 <0>        -0.1319
     21 C17        -3.2161   -6.9589   -8.1411 C.ar      1 <0>         0.1086
     22 C18        -2.2120   -7.8950   -8.3239 C.ar      1 <0>        -0.1293
     23 C19        -1.2161   -8.0345   -7.3773 C.ar      1 <0>        -0.0756
     24 F1         -4.1866   -6.8204   -9.0707 F         1 <0>        -0.1278
     25 C20         2.0865   -6.1016   -2.7690 C.3       1 <0>        -0.0325
     26 C21         1.8314   -4.5879   -2.8193 C.3       1 <0>        -0.0195
     27 C22         1.5197   -4.1073   -1.4024 C.3       1 <0>        -0.0010
     28 C23         3.1160   -3.9066   -3.2952 C.3       1 <0>        -0.0804
     29 C24         3.3732   -4.2691   -4.7351 C.ar      1 <0>        -0.1010
     30 C25         4.1218   -5.3901   -5.0420 C.ar      1 <0>        -0.0744
     31 C26         4.3579   -5.7238   -6.3622 C.ar      1 <0>        -0.1474
     32 C27         3.8444   -4.9350   -7.3776 C.ar      1 <0>         0.1099
     33 C28         3.0948   -3.8125   -7.0690 C.ar      1 <0>        -0.1515
     34 C29         2.8555   -3.4837   -5.7482 C.ar      1 <0>        -0.0827
     35 F2          4.0749   -5.2600   -8.6685 F         1 <0>        -0.1338
     36 H1         -0.9518    1.9222    0.0259 H         1 <0>         0.1499
     37 H2          1.2167    3.1384    0.0069 H         1 <0>         0.1512
     38 H3          3.3170    1.8532   -0.0197 H         1 <0>         0.1721
     39 H4         -0.9217   -0.5635    0.0082 H         1 <0>         0.1447
     40 H5          2.1058   -2.5163    0.5559 H         1 <0>         0.1482
     41 H6          0.3315   -2.5537    0.4181 H         1 <0>         0.1448
     42 H7         -0.6996   -2.7628   -1.7464 H         1 <0>         0.1354
     43 H8          0.0305   -1.1744   -2.0765 H         1 <0>         0.1321
     44 H9         -0.5971   -2.4603   -4.1691 H         1 <0>         0.1230
     45 H10         1.1357   -2.0442   -4.0826 H         1 <0>         0.1018
     46 H11        -0.7589   -4.5552   -5.0871 H         1 <0>         0.1289
     47 H12         1.9400   -9.0555   -3.5083 H         1 <0>         0.1947
     48 H13        -2.2452   -5.6862   -5.1700 H         1 <0>         0.1377
     49 H14        -4.0111   -5.4358   -6.8656 H         1 <0>         0.1493
     50 H15        -2.2054   -8.5135   -9.2092 H         1 <0>         0.1513
     51 H16        -0.4307   -8.7615   -7.5223 H         1 <0>         0.1463
     52 H17         1.8904   -6.4417   -1.7521 H         1 <0>         0.0845
     53 H18         3.1424   -6.2721   -2.9791 H         1 <0>         0.0936
     54 H19         2.3358   -4.3862   -0.7359 H         1 <0>         0.1410
     55 H20         0.5941   -4.5680   -1.0574 H         1 <0>         0.1386
     56 H21         3.0083   -2.8256   -3.2063 H         1 <0>         0.0663
     57 H22         3.9529   -4.2400   -2.6815 H         1 <0>         0.0999
     58 H23         4.5225   -6.0051   -4.2498 H         1 <0>         0.1342
     59 H24         4.9430   -6.5994   -6.6017 H         1 <0>         0.1387
     60 H25         2.6940   -3.1962   -7.8602 H         1 <0>         0.1368
     61 H26         2.2671   -2.6107   -5.5073 H         1 <0>         0.1254
     62 H27         2.1808   -2.2290   -1.8350 H         1 <0>         0.4241
@<TRIPOS>BOND
     1    1    6 ar
     2    1    2 ar
     3    1   36 1
     4    2    3 ar
     5    2   37 1
     6    3    4 ar
     7    3   38 1
     8    4    5 ar
     9    5    6 ar
    10    5    7 1
    11    6   39 1
    12    7    8 1
    13    7   40 1
    14    7   41 1
    15    8   27 1
    16    8    9 1
    17    8   62 1
    18    9   10 1
    19    9   42 1
    20    9   43 1
    21   10   11 1
    22   10   44 1
    23   10   45 1
    24   11   26 1
    25   11   12 2
    26   12   13 1
    27   12   46 1
    28   13   17 1
    29   13   14 2
    30   14   15 1
    31   14   25 1
    32   15   16 2
    33   15   47 1
    34   16   17 1
    35   17   18 1
    36   18   23 ar
    37   18   19 ar
    38   19   20 ar
    39   19   48 1
    40   20   21 ar
    41   20   49 1
    42   21   22 ar
    43   21   24 1
    44   22   23 ar
    45   22   50 1
    46   23   51 1
    47   25   26 1
    48   25   52 1
    49   25   53 1
    50   26   27 1
    51   26   28 1
    52   27   54 1
    53   27   55 1
    54   28   29 1
    55   28   56 1
    56   28   57 1
    57   29   34 ar
    58   29   30 ar
    59   30   31 ar
    60   30   58 1
    61   31   32 ar
    62   31   59 1
    63   32   33 ar
    64   32   35 1
    65   33   34 ar
    66   33   60 1
    67   34   61 1
@<TRIPOS>MOLECULE
CHEMBL403173__1
   61    66     0     0     0
SMALL
USER_CHARGES

@<TRIPOS>ATOM
      1 C1         -0.0167    1.3821    0.0096 C.ar      1 <0>        -0.0745
      2 C2          1.1937    2.0586    0.0017 C.ar      1 <0>        -0.1736
      3 C3          2.3701    1.3338   -0.0134 C.ar      1 <0>         0.1020
      4 N1          2.3500    0.0151   -0.0207 N.ar      1 <0>        -0.4642
      5 C4          1.2181   -0.6611   -0.0136 C.ar      1 <0>         0.1364
      6 C5          0.0021   -0.0041    0.0020 C.ar      1 <0>        -0.1701
      7 C6          1.2505   -2.1677   -0.0230 C.3       1 <0>         0.1066
      8 N2          1.3680   -2.6463   -1.4069 N.3       1 <0>        -0.5298
      9 C7          0.1783   -2.2907   -2.1892 C.3       1 <0>         0.0549
     10 C8          0.4174   -2.6209   -3.6689 C.3       1 <0>        -0.0796
     11 C9          0.8692   -4.0604   -3.7532 C.2       1 <0>        -0.0509
     12 C10         0.2818   -4.9199   -4.5616 C.2       1 <0>        -0.1161
     13 C11         0.6653   -6.3341   -4.6482 C.2       1 <0>         0.1229
     14 C12         1.6446   -6.8738   -3.8440 C.2       1 <0>        -0.2108
     15 C13         1.7598   -8.2267   -4.1515 C.2       1 <0>         0.0694
     16 N3          0.9041   -8.5136   -5.1008 N.2       1 <0>        -0.2790
     17 N4          0.2028   -7.3508   -5.4420 N.pl3     1 <0>        -0.3199
     18 C14        -0.7940   -7.2454   -6.4211 C.ar      1 <0>         0.1498
     19 C15        -1.8646   -6.3813   -6.2330 C.ar      1 <0>        -0.1056
     20 C16        -2.8460   -6.2789   -7.1991 C.ar      1 <0>        -0.1305
     21 C17        -2.7631   -7.0373   -8.3549 C.ar      1 <0>         0.0971
     22 C18        -1.6962   -7.8998   -8.5443 C.ar      1 <0>        -0.1315
     23 C19        -0.7097   -8.0008   -7.5832 C.ar      1 <0>        -0.0826
     24 F1         -3.7244   -6.9361   -9.2987 F         1 <0>        -0.1335
     25 C20         2.3767   -5.9894   -2.8599 C.3       1 <0>        -0.0350
     26 C21         2.0184   -4.4957   -2.8680 C.3       1 <0>        -0.0074
     27 C22         1.6402   -4.0896   -1.4435 C.3       1 <0>         0.0670
     28 C23         3.2636   -3.7115   -3.2869 C.3       1 <0>        -0.0642
     29 C24         3.5799   -4.0051   -4.7308 C.ar      1 <0>        -0.0833
     30 C25         4.4118   -5.0607   -5.0548 C.ar      1 <0>        -0.0827
     31 C26         4.7022   -5.3311   -6.3786 C.ar      1 <0>        -0.1508
     32 C27         4.1597   -4.5444   -7.3805 C.ar      1 <0>         0.0915
     33 C28         3.3266   -3.4875   -7.0548 C.ar      1 <0>        -0.1528
     34 C29         3.0334   -3.2222   -5.7306 C.ar      1 <0>        -0.0840
     35 F2          4.4433   -4.8076   -8.6749 F         1 <0>        -0.1429
     36 H1         -0.9518    1.9222    0.0259 H         1 <0>         0.1339
     37 H2          1.2167    3.1384    0.0069 H         1 <0>         0.1348
     38 H3          3.3170    1.8532   -0.0197 H         1 <0>         0.1564
     39 H4         -0.9217   -0.5635    0.0082 H         1 <0>         0.1308
     40 H5          2.1058   -2.5163    0.5559 H         1 <0>         0.0966
     41 H6          0.3315   -2.5537    0.4181 H         1 <0>         0.0524
     42 H7         -0.6785   -2.8574   -1.8247 H         1 <0>         0.0392
     43 H8         -0.0206   -1.2243   -2.0829 H         1 <0>         0.0824
     44 H9         -0.5078   -2.4909   -4.2304 H         1 <0>         0.0805
     45 H10         1.1903   -1.9671   -4.0730 H         1 <0>         0.0904
     46 H11        -0.5209   -4.5661   -5.1916 H         1 <0>         0.1164
     47 H12         2.4412   -8.9232   -3.6856 H         1 <0>         0.1890
     48 H13        -1.9298   -5.7899   -5.3317 H         1 <0>         0.1412
     49 H14        -3.6790   -5.6071   -7.0531 H         1 <0>         0.1465
     50 H15        -1.6335   -8.4907   -9.4462 H         1 <0>         0.1466
     51 H16         0.1244   -8.6702   -7.7333 H         1 <0>         0.1440
     52 H17         2.1896   -6.3749   -1.8577 H         1 <0>         0.0721
     53 H18         3.4450   -6.0797   -3.0569 H         1 <0>         0.0794
     54 H19         2.4636   -4.3219   -0.7680 H         1 <0>         0.0868
     55 H20         0.7493   -4.6359   -1.1337 H         1 <0>         0.0434
     56 H21         3.0789   -2.6442   -3.1652 H         1 <0>         0.0957
     57 H22         4.1067   -4.0079   -2.6627 H         1 <0>         0.0787
     58 H23         4.8352   -5.6739   -4.2731 H         1 <0>         0.1304
     59 H24         5.3524   -6.1555   -6.6314 H         1 <0>         0.1313
     60 H25         2.9031   -2.8731   -7.8354 H         1 <0>         0.1307
     61 H26         2.3801   -2.4006   -5.4765 H         1 <0>         0.1282
@<TRIPOS>BOND
     1    1    6 ar
     2    1    2 ar
     3    1   36 1
     4    2    3 ar
     5    2   37 1
     6    3    4 ar
     7    3   38 1
     8    4    5 ar
     9    5    6 ar
    10    5    7 1
    11    6   39 1
    12    7    8 1
    13    7   40 1
    14    7   41 1
    15    8   27 1
    16    8    9 1
    17    9   10 1
    18    9   42 1
    19    9   43 1
    20   10   11 1
    21   10   44 1
    22   10   45 1
    23   11   26 1
    24   11   12 2
    25   12   13 1
    26   12   46 1
    27   13   17 1
    28   13   14 2
    29   14   15 1
    30   14   25 1
    31   15   16 2
    32   15   47 1
    33   16   17 1
    34   17   18 1
    35   18   23 ar
    36   18   19 ar
    37   19   20 ar
    38   19   48 1
    39   20   21 ar
    40   20   49 1
    41   21   22 ar
    42   21   24 1
    43   22   23 ar
    44   22   50 1
    45   23   51 1
    46   25   26 1
    47   25   52 1
    48   25   53 1
    49   26   27 1
    50   26   28 1
    51   27   54 1
    52   27   55 1
    53   28   29 1
    54   28   56 1
    55   28   57 1
    56   29   34 ar
    57   29   30 ar
    58   30   31 ar
    59   30   58 1
    60   31   32 ar
    61   31   59 1
    62   32   33 ar
    63   32   35 1
    64   33   34 ar
    65   33   60 1
    66   34   61 1
@<TRIPOS>MOLECULE
CHEMBL403173__2
   62    67     0     0     0
SMALL
USER_CHARGES

@<TRIPOS>ATOM
      1 C1         -0.0167    1.3821    0.0096 C.ar      1 <0>        -0.0677
      2 C2          1.1937    2.0586    0.0017 C.ar      1 <0>        -0.1358
      3 C3          2.3701    1.3338   -0.0134 C.ar      1 <0>         0.1114
      4 N1          2.3500    0.0151   -0.0207 N.ar      1 <0>        -0.4661
      5 C4          1.2181   -0.6611   -0.0136 C.ar      1 <0>         0.0535
      6 C5          0.0021   -0.0041    0.0020 C.ar      1 <0>        -0.1453
      7 C6          1.2505   -2.1677   -0.0230 C.3       1 <0>         0.0542
      8 N2          1.3680   -2.6463   -1.4069 N.4       1 <0>        -0.3754
      9 C7          0.1912   -2.2160   -2.1581 C.3       1 <0>        -0.0058
     10 C8         -0.0387   -3.0885   -3.3914 C.3       1 <0>        -0.0944
     11 C9          1.2746   -3.7167   -3.8016 C.2       1 <0>        -0.1509
     12 C10         1.7459   -3.5365   -5.0319 C.2       1 <0>        -0.0311
     13 C11         3.0566   -4.1299   -5.3461 C.2       1 <0>         0.1029
     14 C12         3.8967   -4.5702   -4.3283 C.2       1 <0>        -0.2177
     15 C13         5.0412   -5.0706   -4.9162 C.2       1 <0>         0.0687
     16 N3          4.9324   -4.9413   -6.2202 N.2       1 <0>        -0.2662
     17 N4          3.6960   -4.3415   -6.5156 N.pl3     1 <0>        -0.2822
     18 C14         3.2147   -4.0218   -7.7922 C.ar      1 <0>         0.1303
     19 C15         1.8580   -4.1252   -8.0697 C.ar      1 <0>        -0.1028
     20 C16         1.3857   -3.8097   -9.3285 C.ar      1 <0>        -0.1349
     21 C17         2.2641   -3.3905  -10.3137 C.ar      1 <0>         0.1117
     22 C18         3.6175   -3.2868  -10.0389 C.ar      1 <0>        -0.1317
     23 C19         4.0930   -3.5958   -8.7798 C.ar      1 <0>        -0.0733
     24 F1          1.8001   -3.0828  -11.5446 F         1 <0>        -0.1277
     25 C20         3.5005   -4.4534   -2.8793 C.3       1 <0>        -0.0338
     26 C21         1.9789   -4.5756   -2.7799 C.3       1 <0>        -0.0234
     27 C22         1.5188   -4.1026   -1.3939 C.3       1 <0>        -0.0017
     28 C23         1.5718   -6.0373   -2.9762 C.3       1 <0>        -0.0577
     29 C24         1.9590   -6.4848   -4.3621 C.ar      1 <0>        -0.0995
     30 C25         1.0710   -6.3320   -5.4106 C.ar      1 <0>        -0.0879
     31 C26         1.4252   -6.7416   -6.6820 C.ar      1 <0>        -0.1631
     32 C27         2.6700   -7.3053   -6.9056 C.ar      1 <0>         0.1143
     33 C28         3.5585   -7.4578   -5.8547 C.ar      1 <0>        -0.1465
     34 C29         3.2041   -7.0427   -4.5851 C.ar      1 <0>        -0.0619
     35 F2          3.0171   -7.7065   -8.1481 F         1 <0>        -0.1352
     36 H1         -0.9518    1.9222    0.0259 H         1 <0>         0.1494
     37 H2          1.2167    3.1384    0.0069 H         1 <0>         0.1507
     38 H3          3.3170    1.8532   -0.0197 H         1 <0>         0.1713
     39 H4         -0.9217   -0.5635    0.0082 H         1 <0>         0.1436
     40 H5          2.1058   -2.5163    0.5559 H         1 <0>         0.1475
     41 H6          0.3315   -2.5537    0.4181 H         1 <0>         0.1450
     42 H7         -0.6847   -2.2751   -1.5120 H         1 <0>         0.1318
     43 H8          0.3294   -1.1821   -2.4743 H         1 <0>         0.1258
     44 H9         -0.7595   -3.8714   -3.1552 H         1 <0>         0.1065
     45 H10        -0.4197   -2.4740   -4.2071 H         1 <0>         0.1120
     46 H11         1.1902   -2.9780   -5.7705 H         1 <0>         0.1402
     47 H12         5.8843   -5.4970   -4.3929 H         1 <0>         0.1895
     48 H13         1.1728   -4.4524   -7.3017 H         1 <0>         0.1411
     49 H14         0.3307   -3.8903   -9.5448 H         1 <0>         0.1487
     50 H15         4.3009   -2.9600  -10.8087 H         1 <0>         0.1506
     51 H16         5.1479   -3.5105   -8.5646 H         1 <0>         0.1460
     52 H17         3.9702   -5.2524   -2.3057 H         1 <0>         0.0981
     53 H18         3.8162   -3.4854   -2.4903 H         1 <0>         0.0709
     54 H19         2.2614   -4.3851   -0.6477 H         1 <0>         0.1414
     55 H20         0.5625   -4.5654   -1.1502 H         1 <0>         0.1376
     56 H21         2.0801   -6.6582   -2.2385 H         1 <0>         0.0926
     57 H22         0.4933   -6.1340   -2.8512 H         1 <0>         0.0846
     58 H23         0.1000   -5.8926   -5.2359 H         1 <0>         0.1256
     59 H24         0.7312   -6.6224   -7.5009 H         1 <0>         0.1316
     60 H25         4.5296   -7.8977   -6.0279 H         1 <0>         0.1335
     61 H26         3.8987   -7.1575   -3.7661 H         1 <0>         0.1302
     62 H27         2.1895   -2.2363   -1.8255 H         1 <0>         0.4267
@<TRIPOS>BOND
     1    1    6 ar
     2    1    2 ar
     3    1   36 1
     4    2    3 ar
     5    2   37 1
     6    3    4 ar
     7    3   38 1
     8    4    5 ar
     9    5    6 ar
    10    5    7 1
    11    6   39 1
    12    7    8 1
    13    7   40 1
    14    7   41 1
    15    8   27 1
    16    8    9 1
    17    8   62 1
    18    9   10 1
    19    9   42 1
    20    9   43 1
    21   10   11 1
    22   10   44 1
    23   10   45 1
    24   11   26 1
    25   11   12 2
    26   12   13 1
    27   12   46 1
    28   13   17 1
    29   13   14 2
    30   14   15 1
    31   14   25 1
    32   15   16 2
    33   15   47 1
    34   16   17 1
    35   17   18 1
    36   18   23 ar
    37   18   19 ar
    38   19   20 ar
    39   19   48 1
    40   20   21 ar
    41   20   49 1
    42   21   22 ar
    43   21   24 1
    44   22   23 ar
    45   22   50 1
    46   23   51 1
    47   25   26 1
    48   25   52 1
    49   25   53 1
    50   26   27 1
    51   26   28 1
    52   27   54 1
    53   27   55 1
    54   28   29 1
    55   28   56 1
    56   28   57 1
    57   29   34 ar
    58   29   30 ar
    59   30   31 ar
    60   30   58 1
    61   31   32 ar
    62   31   59 1
    63   32   33 ar
    64   32   35 1
    65   33   34 ar
    66   33   60 1
    67   34   61 1
@<TRIPOS>MOLECULE
CHEMBL403173__3
   61    66     0     0     0
SMALL
USER_CHARGES

@<TRIPOS>ATOM
      1 C1         -0.0167    1.3821    0.0096 C.ar      1 <0>        -0.0750
      2 C2          1.1937    2.0586    0.0017 C.ar      1 <0>        -0.1742
      3 C3          2.3701    1.3338   -0.0134 C.ar      1 <0>         0.1017
      4 N1          2.3500    0.0151   -0.0207 N.ar      1 <0>        -0.4643
      5 C4          1.2181   -0.6611   -0.0136 C.ar      1 <0>         0.1357
      6 C5          0.0021   -0.0041    0.0020 C.ar      1 <0>        -0.1688
      7 C6          1.2505   -2.1677   -0.0230 C.3       1 <0>         0.1100
      8 N2          1.3680   -2.6463   -1.4069 N.3       1 <0>        -0.5353
      9 C7          0.2034   -2.2523   -2.1983 C.3       1 <0>         0.0676
     10 C8          0.0847   -3.0947   -3.4683 C.3       1 <0>        -0.0919
     11 C9          1.4544   -3.6142   -3.8443 C.2       1 <0>        -0.0424
     12 C10         1.9575   -3.3524   -5.0478 C.2       1 <0>        -0.1136
     13 C11         3.3176   -3.8398   -5.3321 C.2       1 <0>         0.1298
     14 C12         4.1491   -4.2610   -4.2993 C.2       1 <0>        -0.2219
     15 C13         5.3471   -4.6564   -4.8599 C.2       1 <0>         0.0662
     16 N3          5.2772   -4.4826   -6.1614 N.2       1 <0>        -0.2883
     17 N4          4.0129   -3.9591   -6.4827 N.pl3     1 <0>        -0.2991
     18 C14         3.5573   -3.6226   -7.7643 C.ar      1 <0>         0.1506
     19 C15         2.2225   -3.8090   -8.0988 C.ar      1 <0>        -0.1038
     20 C16         1.7755   -3.4768   -9.3625 C.ar      1 <0>        -0.1342
     21 C17         2.6573   -2.9581  -10.2959 C.ar      1 <0>         0.0980
     22 C18         3.9889   -2.7715   -9.9642 C.ar      1 <0>        -0.1337
     23 C19         4.4387   -3.0971   -8.6998 C.ar      1 <0>        -0.0817
     24 F1          2.2181   -2.6342  -11.5317 F         1 <0>        -0.1343
     25 C20         3.6924   -4.2303   -2.8638 C.3       1 <0>        -0.0227
     26 C21         2.1807   -4.4618   -2.8293 C.3       1 <0>        -0.0085
     27 C22         1.6394   -4.0855   -1.4434 C.3       1 <0>         0.0710
     28 C23         1.8868   -5.9391   -3.0978 C.3       1 <0>        -0.0654
     29 C24         2.3558   -6.3008   -4.4835 C.ar      1 <0>        -0.0836
     30 C25         1.4982   -6.1675   -5.5596 C.ar      1 <0>        -0.0881
     31 C26         1.9273   -6.4984   -6.8309 C.ar      1 <0>        -0.1634
     32 C27         3.2166   -6.9637   -7.0266 C.ar      1 <0>         0.1026
     33 C28         4.0746   -7.0968   -5.9481 C.ar      1 <0>        -0.1464
     34 C29         3.6450   -6.7603   -4.6784 C.ar      1 <0>        -0.0629
     35 F2          3.6370   -7.2880   -8.2689 F         1 <0>        -0.1424
     36 H1         -0.9518    1.9222    0.0259 H         1 <0>         0.1337
     37 H2          1.2167    3.1384    0.0069 H         1 <0>         0.1345
     38 H3          3.3170    1.8532   -0.0197 H         1 <0>         0.1558
     39 H4         -0.9217   -0.5635    0.0082 H         1 <0>         0.1303
     40 H5          2.1058   -2.5163    0.5559 H         1 <0>         0.0957
     41 H6          0.3315   -2.5537    0.4181 H         1 <0>         0.0520
     42 H7         -0.6970   -2.3830   -1.5979 H         1 <0>         0.0392
     43 H8          0.2979   -1.2020   -2.4741 H         1 <0>         0.0740
     44 H9         -0.5868   -3.9341   -3.2879 H         1 <0>         0.0791
     45 H10        -0.3072   -2.4799   -4.2786 H         1 <0>         0.0804
     46 H11         1.3911   -2.8047   -5.7865 H         1 <0>         0.1248
     47 H12         6.1989   -5.0431   -4.3201 H         1 <0>         0.1826
     48 H13         1.5346   -4.2138   -7.3713 H         1 <0>         0.1442
     49 H14         0.7375   -3.6219   -9.6231 H         1 <0>         0.1448
     50 H15         4.6751   -2.3672  -10.6936 H         1 <0>         0.1453
     51 H16         5.4763   -2.9472   -8.4401 H         1 <0>         0.1434
     52 H17         4.1962   -5.0172   -2.3025 H         1 <0>         0.0763
     53 H18         3.9242   -3.2591   -2.4266 H         1 <0>         0.0841
     54 H19         2.3793   -4.3360   -0.6831 H         1 <0>         0.0856
     55 H20         0.7179   -4.6349   -1.2508 H         1 <0>         0.0429
     56 H21         2.4109   -6.5528   -2.3651 H         1 <0>         0.0827
     57 H22         0.8142   -6.1163   -3.0194 H         1 <0>         0.0743
     58 H23         0.4925   -5.8049   -5.4067 H         1 <0>         0.1239
     59 H24         1.2571   -6.3945   -7.6714 H         1 <0>         0.1268
     60 H25         5.0804   -7.4600   -6.0995 H         1 <0>         0.1283
     61 H26         4.3155   -6.8598   -3.8376 H         1 <0>         0.1282
@<TRIPOS>BOND
     1    1    6 ar
     2    1    2 ar
     3    1   36 1
     4    2    3 ar
     5    2   37 1
     6    3    4 ar
     7    3   38 1
     8    4    5 ar
     9    5    6 ar
    10    5    7 1
    11    6   39 1
    12    7    8 1
    13    7   40 1
    14    7   41 1
    15    8   27 1
    16    8    9 1
    17    9   10 1
    18    9   42 1
    19    9   43 1
    20   10   11 1
    21   10   44 1
    22   10   45 1
    23   11   26 1
    24   11   12 2
    25   12   13 1
    26   12   46 1
    27   13   17 1
    28   13   14 2
    29   14   15 1
    30   14   25 1
    31   15   16 2
    32   15   47 1
    33   16   17 1
    34   17   18 1
    35   18   23 ar
    36   18   19 ar
    37   19   20 ar
    38   19   48 1
    39   20   21 ar
    40   20   49 1
    41   21   22 ar
    42   21   24 1
    43   22   23 ar
    44   22   50 1
    45   23   51 1
    46   25   26 1
    47   25   52 1
    48   25   53 1
    49   26   27 1
    50   26   28 1
    51   27   54 1
    52   27   55 1
    53   28   29 1
    54   28   56 1
    55   28   57 1
    56   29   34 ar
    57   29   30 ar
    58   30   31 ar
    59   30   58 1
    60   31   32 ar
    61   31   59 1
    62   32   33 ar
    63   32   35 1
    64   33   34 ar
    65   33   60 1
    66   34   61 1
@<TRIPOS>MOLECULE
CHEMBL363200
   62    65     0     0     0
SMALL
USER_CHARGES

@<TRIPOS>ATOM
      1 C1         -2.0868   -4.8493   -3.0640 C.3       1 <0>        -0.1033
      2 C2         -2.6929   -5.8319   -2.0954 C.2       1 <0>         0.1569
      3 C3         -3.7300   -5.3979   -1.1471 C.ar      1 <0>        -0.0554
      4 C4         -4.3879   -4.1820   -1.2560 C.ar      1 <0>        -0.1067
      5 C5         -5.3512   -3.8431   -0.3146 C.ar      1 <0>         0.1799
      6 C6         -5.6583   -4.7111    0.7323 C.ar      1 <0>        -0.1054
      7 C7         -5.0138   -5.9243    0.8507 C.ar      1 <0>        -0.0262
      8 C8         -4.0505   -6.2786   -0.0852 C.ar      1 <0>        -0.1648
      9 C9         -3.3215   -7.5581   -0.0431 C.2       1 <0>         0.4863
     10 O1         -3.1493   -8.1575    1.0012 O.2       1 <0>        -0.4344
     11 O2         -2.8532   -8.0359   -1.2175 O.3       1 <0>        -0.1621
     12 N1         -2.3098   -7.0704   -2.0922 N.2       1 <0>        -0.2547
     13 N2         -6.0177   -2.6218   -0.4173 N.am      1 <0>        -0.6785
     14 C10        -7.3202   -2.5347   -0.0818 C.2       1 <0>         0.5023
     15 O3         -7.8926   -3.4979    0.3821 O.2       1 <0>        -0.4966
     16 C11        -8.0651   -1.2403   -0.2833 C.3       1 <0>         0.1391
     17 C12        -8.5600   -0.7210    1.0681 C.3       1 <0>        -0.0660
     18 C13        -9.2745    0.5911    0.8710 C.ar      1 <0>        -0.0771
     19 C14        -8.5554    1.7711    0.8342 C.ar      1 <0>        -0.0918
     20 C15        -9.2108    2.9747    0.6534 C.ar      1 <0>        -0.1209
     21 C16       -10.5854    2.9982    0.5089 C.ar      1 <0>        -0.1189
     22 C17       -11.3045    1.8182    0.5447 C.ar      1 <0>        -0.1204
     23 C18       -10.6486    0.6142    0.7212 C.ar      1 <0>        -0.1165
     24 C19        -9.2612   -1.4787   -1.2071 C.3       1 <0>        -0.1305
     25 C20        -8.7732   -1.6023   -2.6519 C.3       1 <0>        -0.0218
     26 C21        -8.3043   -0.2339   -3.1506 C.3       1 <0>        -0.1462
     27 C22        -7.6096   -2.5939   -2.7141 C.3       1 <0>        -0.1590
     28 C23        -9.9002   -2.0950   -3.5225 C.ar      1 <0>        -0.0686
     29 C24       -11.1404   -2.3515   -2.9682 C.ar      1 <0>        -0.1215
     30 C25       -12.1742   -2.8035   -3.7668 C.ar      1 <0>        -0.1161
     31 C26       -11.9681   -2.9986   -5.1197 C.ar      1 <0>        -0.1238
     32 C27       -10.7282   -2.7413   -5.6741 C.ar      1 <0>        -0.1172
     33 C28        -9.6955   -2.2852   -4.8763 C.ar      1 <0>        -0.1159
     34 O4         -7.1922   -0.2752   -0.8738 O.3       1 <0>        -0.5349
     35 H1         -1.3465   -5.3577   -3.6817 H         1 <0>         0.0943
     36 H2         -2.8695   -4.4367   -3.7005 H         1 <0>         0.0992
     37 H3         -1.6060   -4.0429   -2.5103 H         1 <0>         0.0987
     38 H4         -4.1538   -3.5056   -2.0648 H         1 <0>         0.1499
     39 H5         -6.4078   -4.4306    1.4575 H         1 <0>         0.1553
     40 H6         -5.2555   -6.5927    1.6638 H         1 <0>         0.1507
     41 H7         -5.5438   -1.8354   -0.7301 H         1 <0>         0.4143
     42 H8         -9.2457   -1.4458    1.5069 H         1 <0>         0.0978
     43 H9         -7.7100   -0.5752    1.7347 H         1 <0>         0.0846
     44 H10        -7.4814    1.7527    0.9471 H         1 <0>         0.1228
     45 H11        -8.6490    3.8966    0.6254 H         1 <0>         0.1207
     46 H12       -11.0975    3.9386    0.3683 H         1 <0>         0.1200
     47 H13       -12.3784    1.8366    0.4321 H         1 <0>         0.1210
     48 H14       -11.2100   -0.3081    0.7455 H         1 <0>         0.1202
     49 H15        -9.7683   -2.3983   -0.9150 H         1 <0>         0.0878
     50 H16        -9.9541   -0.6409   -1.1280 H         1 <0>         0.0985
     51 H17        -7.3598    0.0234   -2.6712 H         1 <0>         0.0797
     52 H18        -8.1656   -0.2690   -4.2312 H         1 <0>         0.0514
     53 H19        -9.0535    0.5187   -2.9047 H         1 <0>         0.0603
     54 H20        -7.8427   -3.4662   -2.1035 H         1 <0>         0.0627
     55 H21        -7.4521   -2.9048   -3.7468 H         1 <0>         0.0690
     56 H22        -6.7053   -2.1170   -2.3362 H         1 <0>         0.0525
     57 H23       -11.3014   -2.1991   -1.9112 H         1 <0>         0.1242
     58 H24       -13.1429   -3.0046   -3.3336 H         1 <0>         0.1216
     59 H25       -12.7756   -3.3525   -5.7434 H         1 <0>         0.1209
     60 H26       -10.5670   -2.8941   -6.7310 H         1 <0>         0.1213
     61 H27        -8.7279   -2.0806   -5.3101 H         1 <0>         0.1201
     62 H28        -6.5382   -0.6536   -1.4773 H         1 <0>         0.3710
@<TRIPOS>BOND
     1    1    2 1
     2    1   35 1
     3    1   36 1
     4    1   37 1
     5    2   12 2
     6    2    3 1
     7    3    8 ar
     8    3    4 ar
     9    4    5 ar
    10    4   38 1
    11    5    6 ar
    12    5   13 1
    13    6    7 ar
    14    6   39 1
    15    7    8 ar
    16    7   40 1
    17    8    9 1
    18    9   10 2
    19    9   11 1
    20   11   12 1
    21   13   14 am
    22   13   41 1
    23   14   15 2
    24   14   16 1
    25   16   17 1
    26   16   24 1
    27   16   34 1
    28   17   18 1
    29   17   42 1
    30   17   43 1
    31   18   23 ar
    32   18   19 ar
    33   19   20 ar
    34   19   44 1
    35   20   21 ar
    36   20   45 1
    37   21   22 ar
    38   21   46 1
    39   22   23 ar
    40   22   47 1
    41   23   48 1
    42   24   25 1
    43   24   49 1
    44   24   50 1
    45   25   26 1
    46   25   27 1
    47   25   28 1
    48   26   51 1
    49   26   52 1
    50   26   53 1
    51   27   54 1
    52   27   55 1
    53   27   56 1
    54   28   33 ar
    55   28   29 ar
    56   29   30 ar
    57   29   57 1
    58   30   31 ar
    59   30   58 1
    60   31   32 ar
    61   31   59 1
    62   32   33 ar
    63   32   60 1
    64   33   61 1
    65   34   62 1
@<TRIPOS>MOLECULE
CHEMBL363200__1
   62    65     0     0     0
SMALL
USER_CHARGES

@<TRIPOS>ATOM
      1 C1         -2.7026   -4.8273   -1.4366 C.3       1 <0>        -0.1041
      2 C2         -2.0399   -4.4379   -0.1404 C.2       1 <0>         0.1602
      3 C3         -2.4388   -3.2066    0.5581 C.ar      1 <0>        -0.0541
      4 C4         -3.5847   -2.4956    0.2349 C.ar      1 <0>        -0.0905
      5 C5         -3.8877   -1.3373    0.9389 C.ar      1 <0>         0.1898
      6 C6         -3.0526   -0.8875    1.9607 C.ar      1 <0>        -0.1361
      7 C7         -1.9118   -1.5864    2.2941 C.ar      1 <0>        -0.0222
      8 C8         -1.5973   -2.7486    1.6013 C.ar      1 <0>        -0.1732
      9 C9         -0.4066   -3.5636    1.8979 C.2       1 <0>         0.4871
     10 O1          0.5900   -3.0755    2.3959 O.2       1 <0>        -0.4383
     11 O2         -0.4719   -4.8786    1.5920 O.3       1 <0>        -0.1635
     12 N1         -1.1156   -5.1872    0.3742 N.2       1 <0>        -0.2565
     13 N2         -5.0388   -0.6165    0.6200 N.am      1 <0>        -0.6570
     14 C10        -6.1180   -1.2545    0.1252 C.2       1 <0>         0.4954
     15 O3         -6.1338   -2.4659    0.0700 O.2       1 <0>        -0.5053
     16 C11        -7.3050   -0.4626   -0.3594 C.3       1 <0>         0.1398
     17 C12        -7.0750   -0.0351   -1.8103 C.3       1 <0>        -0.0822
     18 C13        -5.7556    0.6850   -1.9187 C.ar      1 <0>        -0.0962
     19 C14        -5.6996    2.0550   -1.7435 C.ar      1 <0>        -0.0965
     20 C15        -4.4893    2.7156   -1.8430 C.ar      1 <0>        -0.1203
     21 C16        -3.3351    2.0060   -2.1172 C.ar      1 <0>        -0.1165
     22 C17        -3.3910    0.6359   -2.2915 C.ar      1 <0>        -0.1170
     23 C18        -4.6006   -0.0253   -2.1878 C.ar      1 <0>        -0.1128
     24 C19        -8.5639   -1.3281   -0.2761 C.3       1 <0>        -0.1320
     25 C20        -9.7475   -0.5658   -0.8753 C.3       1 <0>        -0.0177
     26 C21        -9.6111    0.9235   -0.5523 C.3       1 <0>        -0.1404
     27 C22        -9.7630   -0.7592   -2.3930 C.3       1 <0>        -0.1628
     28 C23       -11.0323   -1.0915   -0.2888 C.ar      1 <0>        -0.0679
     29 C24       -10.9998   -2.1089    0.6464 C.ar      1 <0>        -0.1274
     30 C25       -12.1783   -2.5911    1.1844 C.ar      1 <0>        -0.1168
     31 C26       -13.3893   -2.0555    0.7876 C.ar      1 <0>        -0.1252
     32 C27       -13.4218   -1.0374   -0.1469 C.ar      1 <0>        -0.1172
     33 C28       -12.2430   -0.5523   -0.6818 C.ar      1 <0>        -0.1143
     34 O4         -7.4697    0.6976    0.4585 O.3       1 <0>        -0.5364
     35 H1         -2.2779   -5.7653   -1.7943 H         1 <0>         0.0940
     36 H2         -3.7732   -4.9517   -1.2743 H         1 <0>         0.1014
     37 H3         -2.5360   -4.0466   -2.1788 H         1 <0>         0.0967
     38 H4         -4.2350   -2.8393   -0.5559 H         1 <0>         0.1584
     39 H5         -3.3015    0.0169    2.4959 H         1 <0>         0.1435
     40 H6         -1.2683   -1.2332    3.0863 H         1 <0>         0.1501
     41 H7         -5.0625    0.3439    0.7544 H         1 <0>         0.4223
     42 H8         -7.0614   -0.9169   -2.4510 H         1 <0>         0.0955
     43 H9         -7.8790    0.6302   -2.1249 H         1 <0>         0.1188
     44 H10        -6.6013    2.6094   -1.5293 H         1 <0>         0.1257
     45 H11        -4.4456    3.7861   -1.7068 H         1 <0>         0.1222
     46 H12        -2.3897    2.5222   -2.1956 H         1 <0>         0.1205
     47 H13        -2.4893    0.0816   -2.5060 H         1 <0>         0.1190
     48 H14        -4.6437   -1.0962   -2.3203 H         1 <0>         0.1140
     49 H15        -8.4072   -2.2519   -0.8331 H         1 <0>         0.0919
     50 H16        -8.7743   -1.5641    0.7670 H         1 <0>         0.0821
     51 H17        -8.7592    1.3360   -1.0929 H         1 <0>         0.0767
     52 H18       -10.5196    1.4452   -0.8532 H         1 <0>         0.0453
     53 H19        -9.4573    1.0502    0.5193 H         1 <0>         0.0673
     54 H20        -9.9210   -1.8127   -2.6234 H         1 <0>         0.0584
     55 H21       -10.5693   -0.1675   -2.8264 H         1 <0>         0.0601
     56 H22        -8.8096   -0.4350   -2.8103 H         1 <0>         0.0752
     57 H23       -10.0537   -2.5274    0.9564 H         1 <0>         0.1259
     58 H24       -12.1530   -3.3865    1.9145 H         1 <0>         0.1204
     59 H25       -14.3101   -2.4326    1.2074 H         1 <0>         0.1202
     60 H26       -14.3679   -0.6191   -0.4572 H         1 <0>         0.1210
     61 H27       -12.2681    0.2457   -1.4091 H         1 <0>         0.1207
     62 H28        -7.6199    0.5016    1.3935 H         1 <0>         0.3810
@<TRIPOS>BOND
     1    1    2 1
     2    1   35 1
     3    1   36 1
     4    1   37 1
     5    2   12 2
     6    2    3 1
     7    3    8 ar
     8    3    4 ar
     9    4    5 ar
    10    4   38 1
    11    5    6 ar
    12    5   13 1
    13    6    7 ar
    14    6   39 1
    15    7    8 ar
    16    7   40 1
    17    8    9 1
    18    9   10 2
    19    9   11 1
    20   11   12 1
    21   13   14 am
    22   13   41 1
    23   14   15 2
    24   14   16 1
    25   16   17 1
    26   16   24 1
    27   16   34 1
    28   17   18 1
    29   17   42 1
    30   17   43 1
    31   18   23 ar
    32   18   19 ar
    33   19   20 ar
    34   19   44 1
    35   20   21 ar
    36   20   45 1
    37   21   22 ar
    38   21   46 1
    39   22   23 ar
    40   22   47 1
    41   23   48 1
    42   24   25 1
    43   24   49 1
    44   24   50 1
    45   25   26 1
    46   25   27 1
    47   25   28 1
    48   26   51 1
    49   26   52 1
    50   26   53 1
    51   27   54 1
    52   27   55 1
    53   27   56 1
    54   28   33 ar
    55   28   29 ar
    56   29   30 ar
    57   29   57 1
    58   30   31 ar
    59   30   58 1
    60   31   32 ar
    61   31   59 1
    62   32   33 ar
    63   32   60 1
    64   33   61 1
    65   34   62 1
@<TRIPOS>MOLECULE
CHEMBL551816
   60    63     0     0     0
SMALL
USER_CHARGES

@<TRIPOS>ATOM
      1 C1          0.3147    1.6643   -0.9757 C.3       1 <0>        -0.1770
      2 C2          0.2307    0.1449   -0.8169 C.3       1 <0>         0.1067
      3 N1          1.0342   -0.5001   -1.8583 N.am      1 <0>        -0.5968
      4 C3          2.4475   -0.7985   -1.6136 C.3       1 <0>         0.0892
      5 C4          2.5670   -2.1376   -0.8833 C.3       1 <0>         0.0668
      6 C5          4.0286   -2.3826   -0.5033 C.3       1 <0>         0.0954
      7 N2          4.1284   -3.6132    0.2854 N.pl3     1 <0>        -0.7317
      8 C6          5.3685   -4.0397    0.7573 C.ar      1 <0>         0.2987
      9 C7          6.5062   -3.3021    0.4888 C.ar      1 <0>        -0.2473
     10 C8          7.7435   -3.7223    0.9562 C.ar      1 <0>        -0.0114
     11 C9          7.8599   -4.8791    1.6940 C.ar      1 <0>        -0.2041
     12 C10         6.7298   -5.6408    1.9782 C.ar      1 <0>         0.1719
     13 C11         5.4695   -5.2203    1.5148 C.ar      1 <0>        -0.2313
     14 C12         4.5267   -6.1773    1.9594 C.2       1 <0>         0.0973
     15 N3          5.1521   -7.0955    2.6383 N.2       1 <0>        -0.2592
     16 N4          6.5227   -6.8101    2.6692 N.pl3     1 <0>        -0.3563
     17 C13         7.5080   -7.5744    3.3072 C.ar      1 <0>         0.1609
     18 C14         8.7815   -7.6635    2.7604 C.ar      1 <0>        -0.1086
     19 C15         9.7516   -8.4172    3.3912 C.ar      1 <0>        -0.1275
     20 C16         9.4553   -9.0839    4.5683 C.ar      1 <0>         0.0916
     21 C17         8.1861   -8.9963    5.1153 C.ar      1 <0>        -0.1302
     22 C18         7.2145   -8.2395    4.4905 C.ar      1 <0>        -0.0900
     23 F1         10.4057   -9.8210    5.1837 F         1 <0>        -0.1349
     24 C19         2.0826   -3.2632   -1.7995 C.3       1 <0>         0.4671
     25 F2          2.7724   -3.2043   -3.0152 F         1 <0>        -0.1597
     26 F3          2.3214   -4.4982   -1.1872 F         1 <0>        -0.1789
     27 F4          0.7112   -3.1162   -2.0338 F         1 <0>        -0.1558
     28 O1          1.7657   -2.1082    0.2996 O.3       1 <0>        -0.5252
     29 C20         0.4732   -0.8189   -3.0416 C.2       1 <0>         0.5744
     30 O2          1.1083   -1.4481   -3.8655 O.2       1 <0>        -0.4999
     31 C21        -0.9130   -0.4040   -3.3373 C.ar      1 <0>        -0.1050
     32 C22        -1.1559    0.7514   -4.0848 C.ar      1 <0>         0.0019
     33 C23        -2.4548    1.1326   -4.3576 C.ar      1 <0>        -0.1063
     34 C24        -3.5141    0.3742   -3.8926 C.ar      1 <0>        -0.0768
     35 C25        -3.2817   -0.7706   -3.1516 C.ar      1 <0>        -0.1063
     36 C26        -1.9883   -1.1681   -2.8759 C.ar      1 <0>        -0.0066
     37 Cl1        -1.6989   -2.6093   -1.9524 Cl        1 <0>        -0.0237
     38 Cl2         0.1718    1.7054   -4.6685 Cl        1 <0>        -0.0400
     39 H1          1.3531    1.9825   -0.8827 H         1 <0>         0.0613
     40 H2         -0.0660    1.9487   -1.9566 H         1 <0>         0.0595
     41 H3         -0.2831    2.1442   -0.2008 H         1 <0>         0.0716
     42 H4          0.6115   -0.1395    0.1641 H         1 <0>         0.0888
     43 H5         -0.8076   -0.1733   -0.9098 H         1 <0>         0.0798
     44 H6          2.9769   -0.8548   -2.5647 H         1 <0>         0.1152
     45 H7          2.8844   -0.0101   -1.0007 H         1 <0>         0.1094
     46 H8          4.6277   -2.4816   -1.4085 H         1 <0>         0.0884
     47 H9          4.3966   -1.5426    0.0859 H         1 <0>         0.0918
     48 H10         3.3315   -4.1311    0.4790 H         1 <0>         0.4107
     49 H11         6.4318   -2.3928   -0.0891 H         1 <0>         0.1262
     50 H12         8.6241   -3.1361    0.7389 H         1 <0>         0.1320
     51 H13         8.8284   -5.1959    2.0520 H         1 <0>         0.1254
     52 H14         3.4642   -6.1504    1.7674 H         1 <0>         0.1910
     53 H15         9.0128   -7.1440    1.8422 H         1 <0>         0.1427
     54 H16        10.7419   -8.4870    2.9661 H         1 <0>         0.1463
     55 H17         7.9570   -9.5173    6.0332 H         1 <0>         0.1453
     56 H18         6.2261   -8.1678    4.9198 H         1 <0>         0.1428
     57 H19         2.0169   -1.4172    0.9277 H         1 <0>         0.3947
     58 H20        -2.6442    2.0253   -4.9352 H         1 <0>         0.1481
     59 H21        -4.5278    0.6776   -4.1089 H         1 <0>         0.1493
     60 H22        -4.1139   -1.3572   -2.7913 H         1 <0>         0.1480
@<TRIPOS>BOND
     1    1    2 1
     2    1   39 1
     3    1   40 1
     4    1   41 1
     5    2    3 1
     6    2   42 1
     7    2   43 1
     8    3    4 1
     9    3   29 am
    10    4    5 1
    11    4   44 1
    12    4   45 1
    13    5    6 1
    14    5   24 1
    15    5   28 1
    16    6    7 1
    17    6   46 1
    18    6   47 1
    19    7    8 1
    20    7   48 1
    21    8   13 ar
    22    8    9 ar
    23    9   10 ar
    24    9   49 1
    25   10   11 ar
    26   10   50 1
    27   11   12 ar
    28   11   51 1
    29   12   16 1
    30   12   13 ar
    31   13   14 1
    32   14   15 2
    33   14   52 1
    34   15   16 1
    35   16   17 1
    36   17   22 ar
    37   17   18 ar
    38   18   19 ar
    39   18   53 1
    40   19   20 ar
    41   19   54 1
    42   20   21 ar
    43   20   23 1
    44   21   22 ar
    45   21   55 1
    46   22   56 1
    47   24   25 1
    48   24   26 1
    49   24   27 1
    50   28   57 1
    51   29   30 2
    52   29   31 1
    53   31   36 ar
    54   31   32 ar
    55   32   33 ar
    56   32   38 1
    57   33   34 ar
    58   33   58 1
    59   34   35 ar
    60   34   59 1
    61   35   36 ar
    62   35   60 1
    63   36   37 1
@<TRIPOS>MOLECULE
CHEMBL551816__1
   60    63     0     0     0
SMALL
USER_CHARGES

@<TRIPOS>ATOM
      1 C1         -0.0187    1.5258    0.0104 C.3       1 <0>        -0.1869
      2 C2          0.0021   -0.0041    0.0020 C.3       1 <0>         0.0989
      3 N1          0.6878   -0.4765   -1.2033 N.am      1 <0>        -0.5960
      4 C3          2.1353   -0.7012   -1.1821 C.3       1 <0>         0.0900
      5 C4          2.4212   -2.1448   -0.7635 C.3       1 <0>         0.0677
      6 C5          3.9314   -2.3447   -0.6203 C.3       1 <0>         0.0948
      7 N2          4.2052   -3.7269   -0.2195 N.pl3     1 <0>        -0.7350
      8 C6          5.5193   -4.1491   -0.0259 C.ar      1 <0>         0.2984
      9 C7          6.5672   -3.2658   -0.2052 C.ar      1 <0>        -0.2467
     10 C8          7.8775   -3.6808   -0.0138 C.ar      1 <0>        -0.0116
     11 C9          8.1567   -4.9772    0.3571 C.ar      1 <0>        -0.2038
     12 C10         7.1198   -5.8871    0.5438 C.ar      1 <0>         0.1719
     13 C11         5.7872   -5.4749    0.3589 C.ar      1 <0>        -0.2313
     14 C12         4.9679   -6.5979    0.6238 C.2       1 <0>         0.0971
     15 N3          5.7294   -7.6032    0.9476 N.2       1 <0>        -0.2590
     16 N4          7.0734   -7.2125    0.9028 N.pl3     1 <0>        -0.3563
     17 C13         8.1768   -8.0263    1.1899 C.ar      1 <0>         0.1609
     18 C14         9.3695   -7.8491    0.5009 C.ar      1 <0>        -0.1086
     19 C15        10.4562   -8.6522    0.7858 C.ar      1 <0>        -0.1277
     20 C16        10.3573   -9.6337    1.7578 C.ar      1 <0>         0.0916
     21 C17         9.1688   -9.8120    2.4461 C.ar      1 <0>        -0.1301
     22 C18         8.0813   -9.0076    2.1679 C.ar      1 <0>        -0.0900
     23 F1         11.4215  -10.4185    2.0347 F         1 <0>        -0.1348
     24 C19         1.7396   -2.4320    0.5758 C.3       1 <0>         0.4698
     25 F2          0.3588   -2.2492    0.4450 F         1 <0>        -0.1593
     26 F3          2.0010   -3.7520    0.9586 F         1 <0>        -0.1706
     27 F4          2.2356   -1.5574    1.5486 F         1 <0>        -0.1703
     28 O1          1.9146   -3.0381   -1.7571 O.3       1 <0>        -0.5204
     29 C20        -0.0130   -0.7045   -2.3317 C.2       1 <0>         0.5834
     30 O2          0.5560   -1.0965   -3.3319 O.2       1 <0>        -0.5066
     31 C21        -1.4723   -0.4780   -2.3532 C.ar      1 <0>        -0.1074
     32 C22        -1.9838    0.7716   -2.7133 C.ar      1 <0>        -0.0014
     33 C23        -3.3495    0.9756   -2.7315 C.ar      1 <0>        -0.1063
     34 C24        -4.2105   -0.0531   -2.3938 C.ar      1 <0>        -0.0767
     35 C25        -3.7118   -1.2927   -2.0358 C.ar      1 <0>        -0.1065
     36 C26        -2.3487   -1.5138   -2.0189 C.ar      1 <0>        -0.0015
     37 Cl1        -1.7254   -3.0726   -1.5768 Cl        1 <0>        -0.0273
     38 Cl2        -0.9052    2.0644   -3.1363 Cl        1 <0>        -0.0381
     39 H1          1.0039    1.9031    0.0027 H         1 <0>         0.0611
     40 H2         -0.5459    1.8868   -0.8726 H         1 <0>         0.0663
     41 H3         -0.5289    1.8773    0.9072 H         1 <0>         0.0714
     42 H4          0.5293   -0.3651    0.8851 H         1 <0>         0.0866
     43 H5         -1.0205   -0.3814    0.0098 H         1 <0>         0.0830
     44 H6          2.5453   -0.5232   -2.1762 H         1 <0>         0.1170
     45 H7          2.5986   -0.0180   -0.4703 H         1 <0>         0.1073
     46 H8          4.4170   -2.1401   -1.5745 H         1 <0>         0.0933
     47 H9          4.3178   -1.6633    0.1376 H         1 <0>         0.0881
     48 H10         3.4719   -4.3483   -0.0889 H         1 <0>         0.4104
     49 H11         6.3648   -2.2457   -0.4967 H         1 <0>         0.1264
     50 H12         8.6865   -2.9799   -0.1574 H         1 <0>         0.1320
     51 H13         9.1806   -5.2883    0.5027 H         1 <0>         0.1254
     52 H14         3.8896   -6.6178    0.5668 H         1 <0>         0.1908
     53 H15         9.4469   -7.0841   -0.2574 H         1 <0>         0.1427
     54 H16        11.3838   -8.5150    0.2500 H         1 <0>         0.1463
     55 H17         9.0936  -10.5782    3.2035 H         1 <0>         0.1454
     56 H18         7.1560   -9.1440    2.7080 H         1 <0>         0.1428
     57 H19         2.3033   -2.9128   -2.6336 H         1 <0>         0.4034
     58 H20        -3.7463    1.9408   -3.0096 H         1 <0>         0.1482
     59 H21        -5.2776    0.1125   -2.4095 H         1 <0>         0.1493
     60 H22        -4.3902   -2.0908   -1.7728 H         1 <0>         0.1482
@<TRIPOS>BOND
     1    1    2 1
     2    1   39 1
     3    1   40 1
     4    1   41 1
     5    2    3 1
     6    2   42 1
     7    2   43 1
     8    3    4 1
     9    3   29 am
    10    4    5 1
    11    4   44 1
    12    4   45 1
    13    5    6 1
    14    5   24 1
    15    5   28 1
    16    6    7 1
    17    6   46 1
    18    6   47 1
    19    7    8 1
    20    7   48 1
    21    8   13 ar
    22    8    9 ar
    23    9   10 ar
    24    9   49 1
    25   10   11 ar
    26   10   50 1
    27   11   12 ar
    28   11   51 1
    29   12   16 1
    30   12   13 ar
    31   13   14 1
    32   14   15 2
    33   14   52 1
    34   15   16 1
    35   16   17 1
    36   17   22 ar
    37   17   18 ar
    38   18   19 ar
    39   18   53 1
    40   19   20 ar
    41   19   54 1
    42   20   21 ar
    43   20   23 1
    44   21   22 ar
    45   21   55 1
    46   22   56 1
    47   24   25 1
    48   24   26 1
    49   24   27 1
    50   28   57 1
    51   29   30 2
    52   29   31 1
    53   31   36 ar
    54   31   32 ar
    55   32   33 ar
    56   32   38 1
    57   33   34 ar
    58   33   58 1
    59   34   35 ar
    60   34   59 1
    61   35   36 ar
    62   35   60 1
    63   36   37 1
@<TRIPOS>MOLECULE
CHEMBL372181
   56    59     0     0     0
SMALL
USER_CHARGES

@<TRIPOS>ATOM
      1 C1         -0.7790    1.7249    0.5146 C.3       1 <0>        -0.1355
      2 C2         -0.3302    0.3393    0.0461 C.3       1 <0>        -0.0126
      3 C3          0.8591   -0.1240    0.8899 C.3       1 <0>        -0.1607
      4 C4         -1.4851   -0.6516    0.2051 C.3       1 <0>        -0.1249
      5 C5         -2.0202   -0.5857    1.6370 C.3       1 <0>         0.1773
      6 C6         -0.9519   -1.0478    2.5942 C.ar      1 <0>        -0.0848
      7 C7         -0.0799   -2.0543    2.2233 C.ar      1 <0>        -0.0877
      8 C8          0.9001   -2.4781    3.1013 C.ar      1 <0>        -0.1262
      9 C9          1.0082   -1.8953    4.3501 C.ar      1 <0>        -0.1055
     10 C10         0.1368   -0.8883    4.7207 C.ar      1 <0>        -0.1255
     11 C11        -0.8404   -0.4614    3.8411 C.ar      1 <0>        -0.0913
     12 C12        -3.2281   -1.4780    1.7634 C.2       1 <0>         0.4965
     13 O1         -3.3682   -2.4191    1.0114 O.2       1 <0>        -0.4979
     14 N1         -4.1526   -1.2301    2.7122 N.am      1 <0>        -0.6637
     15 C13        -5.2113   -2.1170    2.9025 C.ar      1 <0>         0.1913
     16 C14        -5.0167   -3.4821    2.7139 C.ar      1 <0>        -0.1298
     17 C15        -6.0580   -4.3631    2.9002 C.ar      1 <0>        -0.0084
     18 C16        -7.3146   -3.8843    3.2799 C.ar      1 <0>        -0.2136
     19 C17        -7.5031   -2.5100    3.4679 C.ar      1 <0>        -0.0802
     20 C18        -6.4607   -1.6362    3.2866 C.ar      1 <0>        -0.1270
     21 C19        -8.9464   -2.3354    3.8672 C.3       1 <0>         0.0917
     22 O2         -9.5277   -3.6419    3.8897 O.3       1 <0>        -0.3145
     23 C20        -8.5980   -4.5515    3.5524 C.2       1 <0>         0.5232
     24 O3         -8.7888   -5.7495    3.4830 O.2       1 <0>        -0.4483
     25 O4         -2.3875    0.7600    1.9467 O.3       1 <0>        -0.5367
     26 C21         0.0779    0.4067   -1.4030 C.ar      1 <0>        -0.0692
     27 C22        -0.5824   -0.3616   -2.3435 C.ar      1 <0>        -0.1259
     28 C23        -0.2081   -0.2997   -3.6727 C.ar      1 <0>        -0.1169
     29 C24         0.8264    0.5308   -4.0615 C.ar      1 <0>        -0.1256
     30 C25         1.4862    1.2997   -3.1211 C.ar      1 <0>        -0.1175
     31 C26         1.1090    1.2410   -1.7925 C.ar      1 <0>        -0.1144
     32 H1         -0.1021    2.4803    0.1153 H         1 <0>         0.0457
     33 H2         -1.7907    1.9189    0.1584 H         1 <0>         0.0499
     34 H3         -0.7637    1.7628    1.6038 H         1 <0>         0.0863
     35 H4          0.5820   -0.1152    1.9441 H         1 <0>         0.0855
     36 H5          1.1406   -1.1354    0.5967 H         1 <0>         0.0587
     37 H6          1.7018    0.5485    0.7301 H         1 <0>         0.0518
     38 H7         -2.2822   -0.3955   -0.4928 H         1 <0>         0.0791
     39 H8         -1.1295   -1.6606   -0.0038 H         1 <0>         0.0911
     40 H9         -0.1644   -2.5096    1.2476 H         1 <0>         0.1285
     41 H10         1.5809   -3.2649    2.8118 H         1 <0>         0.1265
     42 H11         1.7734   -2.2270    5.0364 H         1 <0>         0.1243
     43 H12         0.2211   -0.4331    5.6965 H         1 <0>         0.1252
     44 H13        -1.5189    0.3279    4.1292 H         1 <0>         0.1311
     45 H14        -4.0814   -0.4346    3.2627 H         1 <0>         0.4206
     46 H15        -4.0453   -3.8515    2.4200 H         1 <0>         0.1472
     47 H16        -5.9041   -5.4219    2.7528 H         1 <0>         0.1423
     48 H17        -6.6100   -0.5773    3.4374 H         1 <0>         0.1410
     49 H18        -9.0075   -1.8829    4.8569 H         1 <0>         0.1189
     50 H19        -9.4621   -1.7102    3.1383 H         1 <0>         0.1185
     51 H20        -3.0726    1.1236    1.3691 H         1 <0>         0.3859
     52 H21        -1.3906   -1.0104   -2.0398 H         1 <0>         0.1242
     53 H22        -0.7235   -0.9004   -4.4075 H         1 <0>         0.1206
     54 H23         1.1194    0.5786   -5.0999 H         1 <0>         0.1201
     55 H24         2.2946    1.9482   -3.4248 H         1 <0>         0.1208
     56 H25         1.6220    1.8446   -1.0584 H         1 <0>         0.1204
@<TRIPOS>BOND
     1    1    2 1
     2    1   32 1
     3    1   33 1
     4    1   34 1
     5    2    3 1
     6    2    4 1
     7    2   26 1
     8    3   35 1
     9    3   36 1
    10    3   37 1
    11    4    5 1
    12    4   38 1
    13    4   39 1
    14    5    6 1
    15    5   12 1
    16    5   25 1
    17    6   11 ar
    18    6    7 ar
    19    7    8 ar
    20    7   40 1
    21    8    9 ar
    22    8   41 1
    23    9   10 ar
    24    9   42 1
    25   10   11 ar
    26   10   43 1
    27   11   44 1
    28   12   13 2
    29   12   14 am
    30   14   15 1
    31   14   45 1
    32   15   20 ar
    33   15   16 ar
    34   16   17 ar
    35   16   46 1
    36   17   18 ar
    37   17   47 1
    38   18   23 1
    39   18   19 ar
    40   19   20 ar
    41   19   21 1
    42   20   48 1
    43   21   22 1
    44   21   49 1
    45   21   50 1
    46   22   23 1
    47   23   24 2
    48   25   51 1
    49   26   31 ar
    50   26   27 ar
    51   27   28 ar
    52   27   52 1
    53   28   29 ar
    54   28   53 1
    55   29   30 ar
    56   29   54 1
    57   30   31 ar
    58   30   55 1
    59   31   56 1
@<TRIPOS>MOLECULE
CHEMBL372181__1
   56    59     0     0     0
SMALL
USER_CHARGES

@<TRIPOS>ATOM
      1 C1         -0.3493    0.9758    1.0327 C.3       1 <0>        -0.1624
      2 C2         -0.2571   -0.4772    0.5624 C.3       1 <0>        -0.0113
      3 C3         -0.1223   -1.3986    1.7765 C.3       1 <0>        -0.1451
      4 C4         -1.5221   -0.8423   -0.2169 C.3       1 <0>        -0.1222
      5 C5         -2.7478   -0.6386    0.6759 C.3       1 <0>         0.1752
      6 C6         -2.8617    0.8173    1.0481 C.ar      1 <0>        -0.0723
      7 C7         -2.7014    1.7924    0.0815 C.ar      1 <0>        -0.0997
      8 C8         -2.8059    3.1278    0.4229 C.ar      1 <0>        -0.1189
      9 C9         -3.0711    3.4881    1.7309 C.ar      1 <0>        -0.1102
     10 C10        -3.2322    2.5130    2.6973 C.ar      1 <0>        -0.1223
     11 C11        -3.1320    1.1774    2.3551 C.ar      1 <0>        -0.0986
     12 C12        -3.9872   -1.0655   -0.0675 C.2       1 <0>         0.4973
     13 O1         -4.0008   -1.0551   -1.2801 O.2       1 <0>        -0.4978
     14 N1         -5.0806   -1.4589    0.6154 N.am      1 <0>        -0.6631
     15 C13        -6.1881   -1.9573   -0.0692 C.ar      1 <0>         0.1917
     16 C14        -6.0099   -2.6916   -1.2380 C.ar      1 <0>        -0.1318
     17 C15        -7.0993   -3.1865   -1.9188 C.ar      1 <0>        -0.0082
     18 C16        -8.3884   -2.9503   -1.4339 C.ar      1 <0>        -0.2140
     19 C17        -8.5601   -2.2110   -0.2577 C.ar      1 <0>        -0.0794
     20 C18        -7.4709   -1.7245    0.4205 C.ar      1 <0>        -0.1269
     21 C19       -10.0472   -2.1432   -0.0183 C.3       1 <0>         0.0914
     22 O2        -10.6689   -2.8602   -1.0882 O.3       1 <0>        -0.3144
     23 C20        -9.7244   -3.3347   -1.9176 C.2       1 <0>         0.5232
     24 O3         -9.9413   -3.9860   -2.9202 O.2       1 <0>        -0.4485
     25 O4         -2.6092   -1.4240    1.8616 O.3       1 <0>        -0.5363
     26 C21         0.9470   -0.6413   -0.3288 C.ar      1 <0>        -0.0690
     27 C22         0.7870   -1.0603   -1.6364 C.ar      1 <0>        -0.1255
     28 C23         1.8914   -1.2108   -2.4540 C.ar      1 <0>        -0.1168
     29 C24         3.1558   -0.9419   -1.9641 C.ar      1 <0>        -0.1257
     30 C25         3.3157   -0.5221   -0.6568 C.ar      1 <0>        -0.1175
     31 C26         2.2109   -0.3675    0.1595 C.ar      1 <0>        -0.1147
     32 H1          0.6064    1.2812    1.4586 H         1 <0>         0.0498
     33 H2         -0.5910    1.6173    0.1852 H         1 <0>         0.0613
     34 H3         -1.1291    1.0641    1.7892 H         1 <0>         0.0867
     35 H4         -0.8245   -1.0862    2.5494 H         1 <0>         0.0887
     36 H5         -0.3409   -2.4245    1.4801 H         1 <0>         0.0493
     37 H6          0.8946   -1.3414    2.1648 H         1 <0>         0.0500
     38 H7         -1.6035   -0.2044   -1.0969 H         1 <0>         0.0914
     39 H8         -1.4687   -1.8856   -0.5282 H         1 <0>         0.0779
     40 H9         -2.4943    1.5109   -0.9404 H         1 <0>         0.1260
     41 H10        -2.6800    3.8897   -0.3321 H         1 <0>         0.1257
     42 H11        -3.1520    4.5315    1.9978 H         1 <0>         0.1239
     43 H12        -3.4391    2.7945    3.7193 H         1 <0>         0.1253
     44 H13        -3.2616    0.4154    3.1094 H         1 <0>         0.1347
     45 H14        -5.0970   -1.3952    1.5831 H         1 <0>         0.4211
     46 H15        -5.0134   -2.8735   -1.6125 H         1 <0>         0.1475
     47 H16        -6.9580   -3.7557   -2.8257 H         1 <0>         0.1425
     48 H17        -7.6084   -1.1587    1.3301 H         1 <0>         0.1407
     49 H18       -10.2930   -2.6097    0.9358 H         1 <0>         0.1191
     50 H19       -10.3788   -1.1049   -0.0227 H         1 <0>         0.1186
     51 H20        -2.5306   -2.3737    1.6974 H         1 <0>         0.3874
     52 H21        -0.2008   -1.2703   -2.0192 H         1 <0>         0.1241
     53 H22         1.7665   -1.5388   -3.4754 H         1 <0>         0.1207
     54 H23         4.0188   -1.0602   -2.6027 H         1 <0>         0.1201
     55 H24         4.3035   -0.3124   -0.2739 H         1 <0>         0.1207
     56 H25         2.3354   -0.0359    1.1798 H         1 <0>         0.1203
@<TRIPOS>BOND
     1    1    2 1
     2    1   32 1
     3    1   33 1
     4    1   34 1
     5    2    3 1
     6    2    4 1
     7    2   26 1
     8    3   35 1
     9    3   36 1
    10    3   37 1
    11    4    5 1
    12    4   38 1
    13    4   39 1
    14    5    6 1
    15    5   12 1
    16    5   25 1
    17    6   11 ar
    18    6    7 ar
    19    7    8 ar
    20    7   40 1
    21    8    9 ar
    22    8   41 1
    23    9   10 ar
    24    9   42 1
    25   10   11 ar
    26   10   43 1
    27   11   44 1
    28   12   13 2
    29   12   14 am
    30   14   15 1
    31   14   45 1
    32   15   20 ar
    33   15   16 ar
    34   16   17 ar
    35   16   46 1
    36   17   18 ar
    37   17   47 1
    38   18   23 1
    39   18   19 ar
    40   19   20 ar
    41   19   21 1
    42   20   48 1
    43   21   22 1
    44   21   49 1
    45   21   50 1
    46   22   23 1
    47   23   24 2
    48   25   51 1
    49   26   31 ar
    50   26   27 ar
    51   27   28 ar
    52   27   52 1
    53   28   29 ar
    54   28   53 1
    55   29   30 ar
    56   29   54 1
    57   30   31 ar
    58   30   55 1
    59   31   56 1
@<TRIPOS>MOLECULE
CHEMBL232573
   72    77     0     0     0
SMALL
USER_CHARGES

@<TRIPOS>ATOM
      1 C1         -0.1863    0.7471    0.4252 C.3       1 <0>        -0.1207
      2 C2         -0.4376   -0.7435    0.3705 C.2       1 <0>        -0.1001
      3 C3         -0.4049   -1.3121   -0.8072 C.2       1 <0>        -0.1388
      4 C4         -0.5481   -2.7901   -1.0145 C.3       1 <0>         0.1439
      5 N1         -0.2345   -3.5058    0.2317 N.3       1 <0>        -0.6655
      6 C5         -1.0182   -2.9874    1.3395 C.3       1 <0>         0.1168
      7 C6         -0.6809   -1.5127    1.6108 C.3       1 <0>         0.0113
      8 C7         -1.6998   -1.0331    2.5857 C.2       1 <0>        -0.1096
      9 C8         -1.8706   -1.8559    3.7128 C.2       1 <0>        -0.0025
     10 C9         -1.1459   -3.1304    3.7723 C.2       1 <0>        -0.1218
     11 C10        -0.7421   -3.7170    2.6340 C.2       1 <0>        -0.1151
     12 C11        -2.7579   -1.3760    4.7813 C.ar      1 <0>        -0.1179
     13 C12        -3.2482   -0.0575    4.7018 C.ar      1 <0>         0.1297
     14 C13        -4.0619    0.4432    5.7022 C.ar      1 <0>        -0.1230
     15 C14        -4.4111   -0.3528    6.7770 C.ar      1 <0>        -0.0869
     16 C15        -3.9525   -1.6579    6.8580 C.ar      1 <0>         0.0624
     17 C16        -3.1303   -2.1767    5.8624 C.ar      1 <0>         0.1262
     18 O1         -2.7179   -3.4679    5.9578 O.3       1 <0>        -0.3196
     19 C17        -3.6109   -4.4718    5.4712 C.3       1 <0>         0.0362
     20 O2         -4.3075   -2.4392    7.9148 O.3       1 <0>        -0.4803
     21 O3         -2.9354    0.7114    3.6260 O.3       1 <0>        -0.2273
     22 C18        -2.5576    0.0574    2.4943 C.2       1 <0>         0.1293
     23 C19        -3.1312    0.4467    1.3070 C.2       1 <0>        -0.1013
     24 C20        -3.9929    1.5596    1.2729 C.2       1 <0>        -0.0445
     25 C21        -4.6791    2.1128    0.1747 C.2       1 <0>        -0.1845
     26 C22        -5.4994    3.2651    0.4438 C.2       1 <0>        -0.1292
     27 C23        -5.5590    3.7338    1.7042 C.2       1 <0>        -0.2003
     28 S1         -4.5003    2.6236    2.6110 S.3       1 <0>         0.1142
     29 C24        -4.5642    1.5471   -1.1685 C.2       1 <0>         0.5824
     30 O4         -4.7731    0.3610   -1.3496 O.2       1 <0>        -0.5346
     31 N2         -4.2272    2.3382   -2.2064 N.am      1 <0>        -0.6045
     32 C25        -4.0521    3.7849   -2.0189 C.3       1 <0>         0.0996
     33 C26        -2.6737    4.1879   -2.5520 C.3       1 <0>        -0.1353
     34 C27        -2.5356    3.7208   -4.0028 C.3       1 <0>        -0.1208
     35 C28        -2.6497    2.1958   -4.0626 C.3       1 <0>        -0.1342
     36 C29        -4.0220    1.7693   -3.5454 C.3       1 <0>         0.1112
     37 C30         0.4407   -3.2328   -2.0983 C.3       1 <0>        -0.1343
     38 C31        -1.9658   -3.1148   -1.4748 C.3       1 <0>        -0.1737
     39 H1          0.8830    0.9317    0.5287 H         1 <0>         0.0685
     40 H2         -0.5478    1.2104   -0.4928 H         1 <0>         0.0641
     41 H3         -0.7129    1.1732    1.2791 H         1 <0>         0.0635
     42 H4         -0.2688   -0.6840   -1.6715 H         1 <0>         0.1137
     43 H5         -0.3569   -4.5010    0.1189 H         1 <0>         0.3505
     44 H6         -2.0820   -3.0710    1.1372 H         1 <0>         0.0540
     45 H7          0.2867   -1.5284    2.1633 H         1 <0>         0.0977
     46 H8         -0.9109   -3.5928    4.7192 H         1 <0>         0.1426
     47 H9         -0.2417   -4.6668    2.6330 H         1 <0>         0.1362
     48 H10        -4.4260    1.4588    5.6463 H         1 <0>         0.1484
     49 H11        -5.0436    0.0451    7.5559 H         1 <0>         0.1493
     50 H12        -3.1999   -5.4584    5.6852 H         1 <0>         0.1010
     51 H13        -4.5782   -4.3668    5.9626 H         1 <0>         0.0451
     52 H14        -3.7359   -4.3560    4.3946 H         1 <0>         0.0490
     53 H15        -5.1215   -2.9424    7.7759 H         1 <0>         0.3864
     54 H16        -2.9208   -0.1013    0.4004 H         1 <0>         0.1623
     55 H17        -6.0551    3.7436   -0.3491 H         1 <0>         0.1371
     56 H18        -6.1185    4.5787    2.0776 H         1 <0>         0.1876
     57 H19        -4.8269    4.3207   -2.5672 H         1 <0>         0.0691
     58 H20        -4.1187    4.0266   -0.9582 H         1 <0>         0.0948
     59 H21        -2.5690    5.2719   -2.5072 H         1 <0>         0.0760
     60 H22        -1.8981    3.7216   -1.9443 H         1 <0>         0.0672
     61 H23        -3.3265    4.1680   -4.6050 H         1 <0>         0.0647
     62 H24        -1.5651    4.0279   -4.3924 H         1 <0>         0.0665
     63 H25        -2.5280    1.8620   -5.0931 H         1 <0>         0.0763
     64 H26        -1.8744    1.7483   -3.4407 H         1 <0>         0.0660
     65 H27        -4.0686    0.6817   -3.4915 H         1 <0>         0.0923
     66 H28        -4.7942    2.1372   -4.2210 H         1 <0>         0.0668
     67 H29         1.4569   -3.0006   -1.7798 H         1 <0>         0.0654
     68 H30         0.3467   -4.3068   -2.2590 H         1 <0>         0.0571
     69 H31         0.2217   -2.7059   -3.0271 H         1 <0>         0.0618
     70 H32        -2.1704   -2.5987   -2.4128 H         1 <0>         0.0674
     71 H33        -2.0622   -4.1903   -1.6233 H         1 <0>         0.0582
     72 H34        -2.6777   -2.7874   -0.7171 H         1 <0>         0.0567
@<TRIPOS>BOND
     1    1    2 1
     2    1   39 1
     3    1   40 1
     4    1   41 1
     5    2    7 1
     6    2    3 2
     7    3    4 1
     8    3   42 1
     9    4    5 1
    10    4   37 1
    11    4   38 1
    12    5    6 1
    13    5   43 1
    14    6   11 1
    15    6    7 1
    16    6   44 1
    17    7    8 1
    18    7   45 1
    19    8   22 1
    20    8    9 2
    21    9   10 1
    22    9   12 1
    23   10   11 2
    24   10   46 1
    25   11   47 1
    26   12   17 ar
    27   12   13 ar
    28   13   14 ar
    29   13   21 1
    30   14   15 ar
    31   14   48 1
    32   15   16 ar
    33   15   49 1
    34   16   17 ar
    35   16   20 1
    36   17   18 1
    37   18   19 1
    38   19   50 1
    39   19   51 1
    40   19   52 1
    41   20   53 1
    42   21   22 1
    43   22   23 2
    44   23   24 1
    45   23   54 1
    46   24   28 1
    47   24   25 2
    48   25   26 1
    49   25   29 1
    50   26   27 2
    51   26   55 1
    52   27   28 1
    53   27   56 1
    54   29   30 2
    55   29   31 am
    56   31   36 1
    57   31   32 1
    58   32   33 1
    59   32   57 1
    60   32   58 1
    61   33   34 1
    62   33   59 1
    63   33   60 1
    64   34   35 1
    65   34   61 1
    66   34   62 1
    67   35   36 1
    68   35   63 1
    69   35   64 1
    70   36   65 1
    71   36   66 1
    72   37   67 1
    73   37   68 1
    74   37   69 1
    75   38   70 1
    76   38   71 1
    77   38   72 1
@<TRIPOS>MOLECULE
CHEMBL232573__1
   73    78     0     0     0
SMALL
USER_CHARGES

@<TRIPOS>ATOM
      1 C1         -0.1950    0.7417    0.4255 C.3       1 <0>        -0.1315
      2 C2         -0.4475   -0.7487    0.3775 C.2       1 <0>        -0.0766
      3 C3         -0.4179   -1.3246   -0.7973 C.2       1 <0>        -0.1829
      4 C4         -0.5582   -2.8037   -0.9942 C.3       1 <0>         0.1007
      5 N1         -0.2337   -3.5163    0.2501 N.4       1 <0>        -0.4877
      6 C5         -1.0316   -2.9901    1.3452 C.3       1 <0>         0.0523
      7 C6         -0.6907   -1.5172    1.6195 C.3       1 <0>        -0.0081
      8 C7         -1.7055   -1.0309    2.5950 C.2       1 <0>        -0.1011
      9 C8         -1.8892   -1.8553    3.7191 C.2       1 <0>        -0.0070
     10 C9         -1.1764   -3.1363    3.7786 C.2       1 <0>        -0.0385
     11 C10        -0.7704   -3.7229    2.6421 C.2       1 <0>        -0.2055
     12 C11        -2.7766   -1.3707    4.7854 C.ar      1 <0>        -0.1327
     13 C12        -3.2421   -0.0426    4.7161 C.ar      1 <0>         0.1362
     14 C13        -4.0524    0.4638    5.7159 C.ar      1 <0>        -0.1212
     15 C14        -4.4249   -0.3364    6.7799 C.ar      1 <0>        -0.0741
     16 C15        -3.9923   -1.6512    6.8501 C.ar      1 <0>         0.0684
     17 C16        -3.1734   -2.1754    5.8546 C.ar      1 <0>         0.1287
     18 O1         -2.7886   -3.4761    5.9370 O.3       1 <0>        -0.3232
     19 C17        -3.6985   -4.4552    5.4316 C.3       1 <0>         0.0335
     20 O2         -4.3694   -2.4361    7.8963 O.3       1 <0>        -0.4777
     21 O3         -2.9099    0.7284    3.6472 O.3       1 <0>        -0.2213
     22 C18        -2.5493    0.0714    2.5110 C.2       1 <0>         0.0975
     23 C19        -3.1283    0.4705    1.3299 C.2       1 <0>        -0.0674
     24 C20        -3.9748    1.5953    1.3056 C.2       1 <0>        -0.0799
     25 C21        -4.6634    2.1599    0.2147 C.2       1 <0>        -0.1577
     26 C22        -5.4650    3.3230    0.4931 C.2       1 <0>        -0.1392
     27 C23        -5.5064    3.7904    1.7547 C.2       1 <0>        -0.1803
     28 S1         -4.4548    2.6641    2.6500 S.3       1 <0>         0.1323
     29 C24        -4.5688    1.5949   -1.1305 C.2       1 <0>         0.5809
     30 O4         -4.7958    0.4121   -1.3114 O.2       1 <0>        -0.5406
     31 N2         -4.2305    2.3829   -2.1702 N.am      1 <0>        -0.6008
     32 C25        -4.0336    3.8267   -1.9821 C.3       1 <0>         0.0960
     33 C26        -2.6546    4.2114   -2.5273 C.3       1 <0>        -0.1339
     34 C27        -2.5366    3.7449   -3.9801 C.3       1 <0>        -0.1241
     35 C28        -2.6724    2.2217   -4.0412 C.3       1 <0>        -0.1316
     36 C29        -4.0456    1.8135   -3.5119 C.3       1 <0>         0.1096
     37 C30         0.4271   -3.2477   -2.0816 C.3       1 <0>        -0.1729
     38 C31        -1.9753   -3.1365   -1.4491 C.3       1 <0>        -0.1703
     39 H1          0.8745    0.9260    0.5270 H         1 <0>         0.0851
     40 H2         -0.5572    1.2014   -0.4941 H         1 <0>         0.0801
     41 H3         -0.7204    1.1719    1.2781 H         1 <0>         0.0785
     42 H4         -0.2862   -0.7018   -1.6664 H         1 <0>         0.1535
     43 H5         -0.4201   -4.5035    0.1288 H         1 <0>         0.4327
     44 H6         -2.0926   -3.0717    1.1326 H         1 <0>         0.1497
     45 H7          0.2779   -1.5357    2.1699 H         1 <0>         0.1206
     46 H8         -0.9528   -3.6035    4.7262 H         1 <0>         0.1622
     47 H9         -0.2772   -4.6765    2.6423 H         1 <0>         0.1571
     48 H10        -4.3957    1.4870    5.6693 H         1 <0>         0.1528
     49 H11        -5.0558    0.0653    7.5581 H         1 <0>         0.1553
     50 H12        -3.3097   -5.4526    5.6364 H         1 <0>         0.1045
     51 H13        -4.6671   -4.3359    5.9172 H         1 <0>         0.0511
     52 H14        -3.8129   -4.3237    4.3556 H         1 <0>         0.0463
     53 H15        -5.1922   -2.9218    7.7471 H         1 <0>         0.3910
     54 H16        -2.9339   -0.0788    0.4205 H         1 <0>         0.1586
     55 H17        -6.0213    3.8105   -0.2938 H         1 <0>         0.1426
     56 H18        -6.0506    4.6424    2.1347 H         1 <0>         0.1934
     57 H19        -4.8058    4.3742   -2.5224 H         1 <0>         0.0740
     58 H20        -4.0869    4.0676   -0.9204 H         1 <0>         0.0951
     59 H21        -2.5344    5.2938   -2.4819 H         1 <0>         0.0795
     60 H22        -1.8800    3.7334   -1.9277 H         1 <0>         0.0648
     61 H23        -3.3266    4.2040   -4.5743 H         1 <0>         0.0681
     62 H24        -1.5655    4.0391   -4.3782 H         1 <0>         0.0687
     63 H25        -2.5649    1.8880   -5.0733 H         1 <0>         0.0782
     64 H26        -1.8976    1.7625   -3.4273 H         1 <0>         0.0616
     65 H27        -4.1069    0.7265   -3.4592 H         1 <0>         0.0914
     66 H28        -4.8189    2.1932   -4.1797 H         1 <0>         0.0710
     67 H29         1.4440   -3.0096   -1.7696 H         1 <0>         0.0836
     68 H30         0.3369   -4.3229   -2.2365 H         1 <0>         0.0855
     69 H31         0.2009   -2.7264   -3.0117 H         1 <0>         0.1092
     70 H32        -2.1836   -2.6279   -2.3904 H         1 <0>         0.1106
     71 H33        -2.0682   -4.2134   -1.5897 H         1 <0>         0.0853
     72 H34        -2.6868   -2.8062   -0.6924 H         1 <0>         0.0804
     73 H35         0.7513   -3.3967    0.4538 H         1 <0>         0.4297
@<TRIPOS>BOND
     1    1    2 1
     2    1   39 1
     3    1   40 1
     4    1   41 1
     5    2    7 1
     6    2    3 2
     7    3    4 1
     8    3   42 1
     9    4    5 1
    10    4   37 1
    11    4   38 1
    12    5    6 1
    13    5   43 1
    14    5   73 1
    15    6   11 1
    16    6    7 1
    17    6   44 1
    18    7    8 1
    19    7   45 1
    20    8   22 1
    21    8    9 2
    22    9   10 1
    23    9   12 1
    24   10   11 2
    25   10   46 1
    26   11   47 1
    27   12   17 ar
    28   12   13 ar
    29   13   14 ar
    30   13   21 1
    31   14   15 ar
    32   14   48 1
    33   15   16 ar
    34   15   49 1
    35   16   17 ar
    36   16   20 1
    37   17   18 1
    38   18   19 1
    39   19   50 1
    40   19   51 1
    41   19   52 1
    42   20   53 1
    43   21   22 1
    44   22   23 2
    45   23   24 1
    46   23   54 1
    47   24   28 1
    48   24   25 2
    49   25   26 1
    50   25   29 1
    51   26   27 2
    52   26   55 1
    53   27   28 1
    54   27   56 1
    55   29   30 2
    56   29   31 am
    57   31   36 1
    58   31   32 1
    59   32   33 1
    60   32   57 1
    61   32   58 1
    62   33   34 1
    63   33   59 1
    64   33   60 1
    65   34   35 1
    66   34   61 1
    67   34   62 1
    68   35   36 1
    69   35   63 1
    70   35   64 1
    71   36   65 1
    72   36   66 1
    73   37   67 1
    74   37   68 1
    75   37   69 1
    76   38   70 1
    77   38   71 1
    78   38   72 1
@<TRIPOS>MOLECULE
CHEMBL232573__2
   72    77     0     0     0
SMALL
USER_CHARGES

@<TRIPOS>ATOM
      1 C1          0.1480    1.6011   -0.7337 C.3       1 <0>        -0.1275
      2 C2         -0.2278    0.2071   -0.3019 C.2       1 <0>        -0.1062
      3 C3         -0.2816   -0.7264   -1.2028 C.2       1 <0>        -0.1768
      4 C4         -0.6380   -2.1504   -0.8853 C.3       1 <0>         0.1386
      5 N1         -1.3257   -2.2219    0.4099 N.3       1 <0>        -0.6582
      6 C5         -0.5442   -1.5311    1.4463 C.3       1 <0>         0.1162
      7 C6         -0.5167   -0.0387    1.1509 C.3       1 <0>        -0.0293
      8 C7          0.5087    0.6573    2.0018 C.2       1 <0>        -0.1245
      9 C8          1.6687   -0.0023    2.3543 C.2       1 <0>         0.0269
     10 C9          1.8772   -1.3914    1.9329 C.2       1 <0>        -0.1575
     11 C10         0.8434   -2.1034    1.4979 C.2       1 <0>        -0.0999
     12 C11         2.6686    0.7240    3.1550 C.ar      1 <0>        -0.1266
     13 C12         2.3841    2.0409    3.5518 C.ar      1 <0>         0.1363
     14 C13         3.3160    2.7402    4.3041 C.ar      1 <0>        -0.1218
     15 C14         4.5116    2.1455    4.6606 C.ar      1 <0>        -0.0838
     16 C15         4.7964    0.8442    4.2745 C.ar      1 <0>         0.0659
     17 C16         3.8768    0.1261    3.5200 C.ar      1 <0>         0.1277
     18 O1          4.1510   -1.1496    3.1401 O.3       1 <0>        -0.3174
     19 C17         3.8730   -2.1826    4.0876 C.3       1 <0>         0.0298
     20 O2          5.9768    0.2708    4.6342 O.3       1 <0>        -0.4800
     21 O3          1.2129    2.6216    3.2070 O.3       1 <0>        -0.2111
     22 C18         0.3078    1.9755    2.4461 C.2       1 <0>         0.1571
     23 C19        -0.8543    2.6294    2.0913 C.2       1 <0>        -0.1612
     24 C20        -1.0789    3.9503    2.5238 C.2       1 <0>        -0.0213
     25 C21        -2.1877    4.7836    2.2802 C.2       1 <0>        -0.2075
     26 C22        -2.1400    6.1017    2.8576 C.2       1 <0>        -0.1212
     27 C23        -1.0595    6.4499    3.5809 C.2       1 <0>        -0.2063
     28 S1         -0.0356    4.9924    3.5266 S.3       1 <0>         0.0943
     29 C24        -3.3273    4.3341    1.4823 C.2       1 <0>         0.5850
     30 O4         -3.8900    3.2899    1.7585 O.2       1 <0>        -0.5383
     31 N2         -3.7551    5.0752    0.4410 N.am      1 <0>        -0.6059
     32 C25        -3.1513    6.3838    0.1554 C.3       1 <0>         0.0997
     33 C26        -2.6869    6.4045   -1.3043 C.3       1 <0>        -0.1353
     34 C27        -3.8627    6.0427   -2.2147 C.3       1 <0>        -0.1207
     35 C28        -4.3510    4.6306   -1.8831 C.3       1 <0>        -0.1345
     36 C29        -4.8301    4.5871   -0.4336 C.3       1 <0>         0.1111
     37 C30         0.6383   -2.9923   -0.8292 C.3       1 <0>        -0.1481
     38 C31        -1.5569   -2.6992   -1.9786 C.3       1 <0>        -0.1392
     39 H1          1.2301    1.7195   -0.6775 H         1 <0>         0.0643
     40 H2         -0.1827    1.7654   -1.7592 H         1 <0>         0.0629
     41 H3         -0.3315    2.3267   -0.0766 H         1 <0>         0.0712
     42 H4         -0.0603   -0.4669   -2.2275 H         1 <0>         0.1122
     43 H5         -2.2579   -1.8410    0.3459 H         1 <0>         0.3496
     44 H6         -1.0257   -1.6831    2.4122 H         1 <0>         0.1019
     45 H7         -1.4941    0.3805    1.3896 H         1 <0>         0.1001
     46 H8          2.8625   -1.8308    1.9806 H         1 <0>         0.1563
     47 H9          1.0100   -3.1180    1.1673 H         1 <0>         0.1444
     48 H10         3.1067    3.7539    4.6123 H         1 <0>         0.1505
     49 H11         5.2308    2.6993    5.2458 H         1 <0>         0.1511
     50 H12         4.1369   -3.1494    3.6590 H         1 <0>         0.1032
     51 H13         4.4586   -2.0138    4.9914 H         1 <0>         0.0482
     52 H14         2.8116   -2.1724    4.3353 H         1 <0>         0.0537
     53 H15         5.9454   -0.1967    5.4801 H         1 <0>         0.3881
     54 H16        -1.5915    2.1280    1.4818 H         1 <0>         0.1662
     55 H17        -2.9540    6.7966    2.7131 H         1 <0>         0.1354
     56 H18        -0.8622    7.3876    4.0790 H         1 <0>         0.1858
     57 H19        -3.8896    7.1696    0.3151 H         1 <0>         0.0686
     58 H20        -2.2967    6.5433    0.8130 H         1 <0>         0.0956
     59 H21        -2.3247    7.4011   -1.5567 H         1 <0>         0.0755
     60 H22        -1.8844    5.6797   -1.4411 H         1 <0>         0.0665
     61 H23        -4.6744    6.7534   -2.0593 H         1 <0>         0.0648
     62 H24        -3.5412    6.0807   -3.2555 H         1 <0>         0.0659
     63 H25        -5.1732    4.3647   -2.5475 H         1 <0>         0.0761
     64 H26        -3.5329    3.9225   -2.0145 H         1 <0>         0.0654
     65 H27        -5.0828    3.5616   -0.1645 H         1 <0>         0.0921
     66 H28        -5.7083    5.2232   -0.3229 H         1 <0>         0.0667
     67 H29         1.4337   -2.4154   -0.3576 H         1 <0>         0.0699
     68 H30         0.4521   -3.8962   -0.2492 H         1 <0>         0.0723
     69 H31         0.9383   -3.2652   -1.8410 H         1 <0>         0.0594
     70 H32        -1.0437   -2.6576   -2.9393 H         1 <0>         0.0637
     71 H33        -1.8167   -3.7328   -1.7499 H         1 <0>         0.0678
     72 H34        -2.4650   -2.0982   -2.0255 H         1 <0>         0.0558
@<TRIPOS>BOND
     1    1    2 1
     2    1   39 1
     3    1   40 1
     4    1   41 1
     5    2    7 1
     6    2    3 2
     7    3    4 1
     8    3   42 1
     9    4    5 1
    10    4   37 1
    11    4   38 1
    12    5    6 1
    13    5   43 1
    14    6   11 1
    15    6    7 1
    16    6   44 1
    17    7    8 1
    18    7   45 1
    19    8   22 1
    20    8    9 2
    21    9   10 1
    22    9   12 1
    23   10   11 2
    24   10   46 1
    25   11   47 1
    26   12   17 ar
    27   12   13 ar
    28   13   14 ar
    29   13   21 1
    30   14   15 ar
    31   14   48 1
    32   15   16 ar
    33   15   49 1
    34   16   17 ar
    35   16   20 1
    36   17   18 1
    37   18   19 1
    38   19   50 1
    39   19   51 1
    40   19   52 1
    41   20   53 1
    42   21   22 1
    43   22   23 2
    44   23   24 1
    45   23   54 1
    46   24   28 1
    47   24   25 2
    48   25   26 1
    49   25   29 1
    50   26   27 2
    51   26   55 1
    52   27   28 1
    53   27   56 1
    54   29   30 2
    55   29   31 am
    56   31   36 1
    57   31   32 1
    58   32   33 1
    59   32   57 1
    60   32   58 1
    61   33   34 1
    62   33   59 1
    63   33   60 1
    64   34   35 1
    65   34   61 1
    66   34   62 1
    67   35   36 1
    68   35   63 1
    69   35   64 1
    70   36   65 1
    71   36   66 1
    72   37   67 1
    73   37   68 1
    74   37   69 1
    75   38   70 1
    76   38   71 1
    77   38   72 1
@<TRIPOS>MOLECULE
CHEMBL232573__3
   73    78     0     0     0
SMALL
USER_CHARGES

@<TRIPOS>ATOM
      1 C1         -0.3157    1.8099   -0.9638 C.3       1 <0>        -0.1374
      2 C2         -0.6988    0.4029   -0.5833 C.2       1 <0>        -0.0781
      3 C3         -0.7401   -0.5035   -1.5128 C.2       1 <0>        -0.1803
      4 C4         -1.1031   -1.9353   -1.2399 C.3       1 <0>         0.1020
      5 N1         -1.8345   -2.0409    0.0277 N.4       1 <0>        -0.4965
      6 C5         -1.0540   -1.3961    1.0924 C.3       1 <0>         0.0767
      7 C6         -1.0108    0.1066    0.8561 C.3       1 <0>        -0.0230
      8 C7          0.0113    0.7592    1.7446 C.2       1 <0>        -0.1083
      9 C8          1.1612    0.0759    2.0841 C.2       1 <0>         0.0115
     10 C9          1.3629   -1.2971    1.6100 C.2       1 <0>        -0.0679
     11 C10         0.3275   -1.9829    1.1364 C.2       1 <0>        -0.2063
     12 C11         2.1574    0.7606    2.9255 C.ar      1 <0>        -0.1375
     13 C12         1.8801    2.0640    3.3694 C.ar      1 <0>         0.1431
     14 C13         2.8082    2.7244    4.1606 C.ar      1 <0>        -0.1189
     15 C14         3.9927    2.1040    4.5102 C.ar      1 <0>        -0.0727
     16 C15         4.2708    0.8160    4.0771 C.ar      1 <0>         0.0731
     17 C16         3.3546    0.1372    3.2832 C.ar      1 <0>         0.1267
     18 O1          3.6217   -1.1256    2.8578 O.3       1 <0>        -0.3209
     19 C17         3.3272   -2.1911    3.7634 C.3       1 <0>         0.0256
     20 O2          5.4406    0.2172    4.4300 O.3       1 <0>        -0.4776
     21 O3          0.7197    2.6697    3.0312 O.3       1 <0>        -0.2060
     22 C18        -0.1826    2.0614    2.2368 C.2       1 <0>         0.1298
     23 C19        -1.3349    2.7392    1.8951 C.2       1 <0>        -0.1280
     24 C20        -1.5525    4.0447    2.3753 C.2       1 <0>        -0.0570
     25 C21        -2.6511    4.8969    2.1521 C.2       1 <0>        -0.1786
     26 C22        -2.5980    6.1916    2.7798 C.2       1 <0>        -0.1315
     27 C23        -1.5224    6.5020    3.5271 C.2       1 <0>        -0.1858
     28 S1         -0.5109    5.0381    3.4280 S.3       1 <0>         0.1136
     29 C24        -3.7860    4.4887    1.3257 C.2       1 <0>         0.5834
     30 O4         -4.3708    3.4477    1.5657 O.2       1 <0>        -0.5447
     31 N2         -4.1850    5.2643    0.2983 N.am      1 <0>        -0.6018
     32 C25        -3.5476    6.5647    0.0504 C.3       1 <0>         0.0973
     33 C26        -3.0671    6.6092   -1.4035 C.3       1 <0>        -0.1342
     34 C27        -4.2412    6.2971   -2.3343 C.3       1 <0>        -0.1237
     35 C28        -4.7661    4.8896   -2.0419 C.3       1 <0>        -0.1324
     36 C29        -5.2616    4.8229   -0.5988 C.3       1 <0>         0.1096
     37 C30         0.1732   -2.7752   -1.1600 C.3       1 <0>        -0.1836
     38 C31        -1.9814   -2.4610   -2.3770 C.3       1 <0>        -0.1725
     39 H1          0.7655    1.9254   -0.8872 H         1 <0>         0.0820
     40 H2         -0.6306    2.0077   -1.9884 H         1 <0>         0.0794
     41 H3         -0.8049    2.5142   -0.2910 H         1 <0>         0.0821
     42 H4         -0.5035   -0.2150   -2.5263 H         1 <0>         0.1535
     43 H5         -2.7287   -1.5817   -0.0600 H         1 <0>         0.4326
     44 H6         -1.5448   -1.5785    2.0484 H         1 <0>         0.1536
     45 H7         -1.9879    0.5251    1.0973 H         1 <0>         0.1294
     46 H8          2.3440   -1.7467    1.6513 H         1 <0>         0.1749
     47 H9          0.4891   -2.9850    0.7673 H         1 <0>         0.1640
     48 H10         2.6043    3.7273    4.5053 H         1 <0>         0.1552
     49 H11         4.7089    2.6273    5.1263 H         1 <0>         0.1569
     50 H12         3.5869   -3.1433    3.3008 H         1 <0>         0.1062
     51 H13         3.9063   -2.0614    4.6777 H         1 <0>         0.0551
     52 H14         2.2638   -2.1814    4.0024 H         1 <0>         0.0507
     53 H15         5.3928   -0.2828    5.2563 H         1 <0>         0.3926
     54 H16        -2.0700    2.2682    1.2592 H         1 <0>         0.1626
     55 H17        -3.4042    6.8990    2.6534 H         1 <0>         0.1408
     56 H18        -1.3221    7.4181    4.0627 H         1 <0>         0.1916
     57 H19        -4.2690    7.3637    0.2215 H         1 <0>         0.0733
     58 H20        -2.6967    6.6881    0.7204 H         1 <0>         0.0950
     59 H21        -2.6789    7.6026   -1.6281 H         1 <0>         0.0789
     60 H22        -2.2804    5.8690   -1.5495 H         1 <0>         0.0650
     61 H23        -5.0376    7.0230   -2.1702 H         1 <0>         0.0678
     62 H24        -3.9077    6.3523   -3.3706 H         1 <0>         0.0683
     63 H25        -5.5870    4.6591   -2.7209 H         1 <0>         0.0779
     64 H26        -3.9633    4.1656   -2.1819 H         1 <0>         0.0624
     65 H27        -5.5413    3.7975   -0.3571 H         1 <0>         0.0911
     66 H28        -6.1259    5.4767   -0.4819 H         1 <0>         0.0707
     67 H29         0.9593   -2.1964   -0.6751 H         1 <0>         0.1030
     68 H30        -0.0219   -3.6786   -0.5821 H         1 <0>         0.0839
     69 H31         0.4915   -3.0491   -2.1659 H         1 <0>         0.1026
     70 H32        -1.4348   -2.3965   -3.3179 H         1 <0>         0.1082
     71 H33        -2.2461   -3.5000   -2.1811 H         1 <0>         0.0848
     72 H34        -2.8890   -1.8609   -2.4423 H         1 <0>         0.0834
     73 H35        -1.9756   -3.0138    0.2552 H         1 <0>         0.4337
@<TRIPOS>BOND
     1    1    2 1
     2    1   39 1
     3    1   40 1
     4    1   41 1
     5    2    7 1
     6    2    3 2
     7    3    4 1
     8    3   42 1
     9    4    5 1
    10    4   37 1
    11    4   38 1
    12    5    6 1
    13    5   43 1
    14    5   73 1
    15    6   11 1
    16    6    7 1
    17    6   44 1
    18    7    8 1
    19    7   45 1
    20    8   22 1
    21    8    9 2
    22    9   10 1
    23    9   12 1
    24   10   11 2
    25   10   46 1
    26   11   47 1
    27   12   17 ar
    28   12   13 ar
    29   13   14 ar
    30   13   21 1
    31   14   15 ar
    32   14   48 1
    33   15   16 ar
    34   15   49 1
    35   16   17 ar
    36   16   20 1
    37   17   18 1
    38   18   19 1
    39   19   50 1
    40   19   51 1
    41   19   52 1
    42   20   53 1
    43   21   22 1
    44   22   23 2
    45   23   24 1
    46   23   54 1
    47   24   28 1
    48   24   25 2
    49   25   26 1
    50   25   29 1
    51   26   27 2
    52   26   55 1
    53   27   28 1
    54   27   56 1
    55   29   30 2
    56   29   31 am
    57   31   36 1
    58   31   32 1
    59   32   33 1
    60   32   57 1
    61   32   58 1
    62   33   34 1
    63   33   59 1
    64   33   60 1
    65   34   35 1
    66   34   61 1
    67   34   62 1
    68   35   36 1
    69   35   63 1
    70   35   64 1
    71   36   65 1
    72   36   66 1
    73   37   67 1
    74   37   68 1
    75   37   69 1
    76   38   70 1
    77   38   71 1
    78   38   72 1
@<TRIPOS>MOLECULE
CHEMBL232573__4
   72    77     0     0     0
SMALL
USER_CHARGES

@<TRIPOS>ATOM
      1 C1          0.0816    1.9940    0.2855 C.3       1 <0>        -0.1232
      2 C2         -0.0073    0.4917    0.3644 C.2       1 <0>        -0.0999
      3 C3         -0.1128   -0.1809   -0.7412 C.2       1 <0>        -0.1423
      4 C4         -0.2140   -1.6788   -0.7813 C.3       1 <0>         0.1416
      5 N1          0.2662   -2.2512    0.4827 N.3       1 <0>        -0.6627
      6 C5         -0.4057   -1.6133    1.6244 C.3       1 <0>         0.1165
      7 C6          0.0366   -0.1577    1.7174 C.3       1 <0>         0.0132
      8 C7         -0.8353    0.6015    2.6784 C.2       1 <0>        -0.1195
      9 C8         -2.1668    0.2631    2.8098 C.2       1 <0>         0.0186
     10 C9         -2.7150   -0.8607    2.0435 C.2       1 <0>        -0.1449
     11 C10        -1.8943   -1.7333    1.4660 C.2       1 <0>        -0.1508
     12 C11        -3.0003    1.0542    3.7307 C.ar      1 <0>        -0.1279
     13 C12        -2.3976    2.0937    4.4578 C.ar      1 <0>         0.1357
     14 C13        -3.1686    2.8502    5.3276 C.ar      1 <0>        -0.1212
     15 C14        -4.5158    2.5812    5.4786 C.ar      1 <0>        -0.0858
     16 C15        -5.1156    1.5538    4.7655 C.ar      1 <0>         0.0708
     17 C16        -4.3615    0.7844    3.8882 C.ar      1 <0>         0.1254
     18 O1         -4.9445   -0.2238    3.1879 O.3       1 <0>        -0.3231
     19 C17        -4.9530   -1.5165    3.7970 C.3       1 <0>         0.0319
     20 O2         -6.4427    1.2994    4.9252 O.3       1 <0>        -0.4856
     21 O3         -1.0787    2.3539    4.3144 O.3       1 <0>        -0.2119
     22 C18        -0.3171    1.6568    3.4485 C.2       1 <0>         0.1498
     23 C19         1.0151    1.9899    3.3136 C.2       1 <0>        -0.1511
     24 C20         1.5580    3.0432    4.0740 C.2       1 <0>        -0.0244
     25 C21         2.8755    3.5402    4.0815 C.2       1 <0>        -0.2032
     26 C22         3.1428    4.6388    4.9729 C.2       1 <0>        -0.1215
     27 C23         2.1364    5.1143    5.7297 C.2       1 <0>        -0.2054
     28 S1          0.7507    4.0936    5.2677 S.3       1 <0>         0.0942
     29 C24         3.9176    2.9701    3.2291 C.2       1 <0>         0.5842
     30 O4          4.1481    1.7748    3.2659 O.2       1 <0>        -0.5355
     31 N2          4.6232    3.7673    2.4027 N.am      1 <0>        -0.6059
     32 C25         5.6037    3.1970    1.4688 C.3       1 <0>         0.1108
     33 C26         5.2832    3.6913    0.0547 C.3       1 <0>        -0.1342
     34 C27         5.2295    5.2207    0.0531 C.3       1 <0>        -0.1207
     35 C28         4.1192    5.6948    0.9937 C.3       1 <0>        -0.1355
     36 C29         4.4222    5.2227    2.4142 C.3       1 <0>         0.1012
     37 C30         0.6356   -2.2140   -1.9357 C.3       1 <0>        -0.1346
     38 C31        -1.6735   -2.0830   -0.9992 C.3       1 <0>        -0.1865
     39 H1          1.1266    2.2923    0.2026 H         1 <0>         0.0683
     40 H2         -0.4669    2.3450   -0.5887 H         1 <0>         0.0625
     41 H3         -0.3509    2.4313    1.1854 H         1 <0>         0.0630
     42 H4         -0.1289    0.3617   -1.6749 H         1 <0>         0.1138
     43 H5          0.1358   -3.2516    0.4992 H         1 <0>         0.3495
     44 H6         -0.1053   -2.1219    2.5405 H         1 <0>         0.0994
     45 H7          1.0603   -0.1221    2.0901 H         1 <0>         0.1070
     46 H8         -3.7837   -0.9787    1.9426 H         1 <0>         0.1523
     47 H9         -2.3004   -2.5446    0.8800 H         1 <0>         0.1381
     48 H10        -2.7142    3.6528    5.8895 H         1 <0>         0.1503
     49 H11        -5.1071    3.1764    6.1587 H         1 <0>         0.1510
     50 H12        -5.4469   -2.2272    3.1344 H         1 <0>         0.1001
     51 H13        -3.9278   -1.8398    3.9774 H         1 <0>         0.0521
     52 H14        -5.4907   -1.4684    4.7439 H         1 <0>         0.0558
     53 H15        -7.0131    1.7891    4.3170 H         1 <0>         0.3948
     54 H16         1.6415    1.4426    2.6247 H         1 <0>         0.1675
     55 H17         4.1302    5.0721    5.0332 H         1 <0>         0.1353
     56 H18         2.1617    5.9243    6.4437 H         1 <0>         0.1857
     57 H19         6.6064    3.5191    1.7500 H         1 <0>         0.0668
     58 H20         5.5457    2.1090    1.4975 H         1 <0>         0.0930
     59 H21         6.0586    3.3538   -0.6331 H         1 <0>         0.0757
     60 H22         4.3186    3.2930   -0.2600 H         1 <0>         0.0663
     61 H23         6.1864    5.6181    0.3915 H         1 <0>         0.0645
     62 H24         5.0259    5.5759   -0.9571 H         1 <0>         0.0657
     63 H25         4.0661    6.7834    0.9742 H         1 <0>         0.0755
     64 H26         3.1656    5.2777    0.6702 H         1 <0>         0.0666
     65 H27         3.5848    5.4708    3.0664 H         1 <0>         0.0944
     66 H28         5.3263    5.7137    2.7741 H         1 <0>         0.0679
     67 H29         1.6754   -1.9230   -1.7869 H         1 <0>         0.0657
     68 H30         0.5634   -3.3011   -1.9664 H         1 <0>         0.0572
     69 H31         0.2732   -1.7991   -2.8763 H         1 <0>         0.0614
     70 H32        -1.9141   -2.0175   -2.0603 H         1 <0>         0.0621
     71 H33        -1.8222   -3.1066   -0.6554 H         1 <0>         0.0598
     72 H34        -2.3239   -1.4128   -0.4371 H         1 <0>         0.0747
@<TRIPOS>BOND
     1    1    2 1
     2    1   39 1
     3    1   40 1
     4    1   41 1
     5    2    7 1
     6    2    3 2
     7    3    4 1
     8    3   42 1
     9    4    5 1
    10    4   37 1
    11    4   38 1
    12    5    6 1
    13    5   43 1
    14    6   11 1
    15    6    7 1
    16    6   44 1
    17    7    8 1
    18    7   45 1
    19    8   22 1
    20    8    9 2
    21    9   10 1
    22    9   12 1
    23   10   11 2
    24   10   46 1
    25   11   47 1
    26   12   17 ar
    27   12   13 ar
    28   13   14 ar
    29   13   21 1
    30   14   15 ar
    31   14   48 1
    32   15   16 ar
    33   15   49 1
    34   16   17 ar
    35   16   20 1
    36   17   18 1
    37   18   19 1
    38   19   50 1
    39   19   51 1
    40   19   52 1
    41   20   53 1
    42   21   22 1
    43   22   23 2
    44   23   24 1
    45   23   54 1
    46   24   28 1
    47   24   25 2
    48   25   26 1
    49   25   29 1
    50   26   27 2
    51   26   55 1
    52   27   28 1
    53   27   56 1
    54   29   30 2
    55   29   31 am
    56   31   36 1
    57   31   32 1
    58   32   33 1
    59   32   57 1
    60   32   58 1
    61   33   34 1
    62   33   59 1
    63   33   60 1
    64   34   35 1
    65   34   61 1
    66   34   62 1
    67   35   36 1
    68   35   63 1
    69   35   64 1
    70   36   65 1
    71   36   66 1
    72   37   67 1
    73   37   68 1
    74   37   69 1
    75   38   70 1
    76   38   71 1
    77   38   72 1
@<TRIPOS>MOLECULE
CHEMBL232573__5
   73    78     0     0     0
SMALL
USER_CHARGES

@<TRIPOS>ATOM
      1 C1          0.2206    1.8935   -0.4279 C.3       1 <0>        -0.1334
      2 C2          0.0907    0.3928   -0.4716 C.2       1 <0>        -0.0787
      3 C3          0.0829   -0.1977   -1.6287 C.2       1 <0>        -0.1797
      4 C4         -0.0468   -1.6859   -1.7839 C.3       1 <0>         0.1021
      5 N1          0.3167   -2.3607   -0.5327 N.4       1 <0>        -0.4972
      6 C5         -0.4696   -1.7915    0.5704 C.3       1 <0>         0.0755
      7 C6         -0.0181   -0.3581    0.8250 C.3       1 <0>        -0.0231
      8 C7         -0.9793    0.3450    1.7427 C.2       1 <0>        -0.1084
      9 C8         -2.3220    0.0285    1.7018 C.2       1 <0>         0.0119
     10 C9         -2.7991   -1.0192    0.7934 C.2       1 <0>        -0.0712
     11 C10        -1.9329   -1.8640    0.2412 C.2       1 <0>        -0.2052
     12 C11        -3.2397    0.7644    2.5879 C.ar      1 <0>        -0.1400
     13 C12        -2.7054    1.7314    3.4551 C.ar      1 <0>         0.1419
     14 C13        -3.5557    2.4354    4.2946 C.ar      1 <0>        -0.1185
     15 C14        -4.9150    2.1855    4.2786 C.ar      1 <0>        -0.0742
     16 C15        -5.4478    1.2293    3.4268 C.ar      1 <0>         0.0785
     17 C16        -4.6134    0.5134    2.5771 C.ar      1 <0>         0.1260
     18 O1         -5.1307   -0.4249    1.7411 O.3       1 <0>        -0.3254
     19 C17        -5.2226   -1.7601    2.2419 C.3       1 <0>         0.0274
     20 O2         -6.7877    0.9925    3.4230 O.3       1 <0>        -0.4833
     21 O3         -1.3754    1.9732    3.4744 O.3       1 <0>        -0.2067
     22 C18        -0.5335    1.3260    2.6450 C.2       1 <0>         0.1263
     23 C19         0.8105    1.6364    2.6828 C.2       1 <0>        -0.1238
     24 C20         1.2819    2.6155    3.5780 C.2       1 <0>        -0.0578
     25 C21         2.5980    3.0789    3.7683 C.2       1 <0>        -0.1777
     26 C22         2.7818    4.0998    4.7667 C.2       1 <0>        -0.1314
     27 C23         1.7052    4.5403    5.4440 C.2       1 <0>        -0.1856
     28 S1          0.3636    3.5911    4.7550 S.3       1 <0>         0.1136
     29 C24         3.7192    2.5506    2.9928 C.2       1 <0>         0.5836
     30 O4          3.9325    1.3518    2.9699 O.2       1 <0>        -0.5442
     31 N2          4.5167    3.3903    2.3033 N.am      1 <0>        -0.6020
     32 C25         5.5898    2.8686    1.4460 C.3       1 <0>         0.1092
     33 C26         5.4299    3.4590    0.0415 C.3       1 <0>        -0.1319
     34 C27         5.3872    4.9859    0.1362 C.3       1 <0>        -0.1237
     35 C28         4.1838    5.4130    0.9797 C.3       1 <0>        -0.1342
     36 C29         4.3257    4.8445    2.3900 C.3       1 <0>         0.0983
     37 C30         0.8807   -2.1613   -2.9040 C.3       1 <0>        -0.1727
     38 C31        -1.4922   -2.0335   -2.1457 C.3       1 <0>        -0.1826
     39 H1          1.2751    2.1658   -0.3833 H         1 <0>         0.0839
     40 H2         -0.2281    2.3233   -1.3235 H         1 <0>         0.0792
     41 H3         -0.2912    2.2770    0.4548 H         1 <0>         0.0771
     42 H4          0.1733    0.4082   -2.5181 H         1 <0>         0.1535
     43 H5          0.1203   -3.3472   -0.6125 H         1 <0>         0.4335
     44 H6         -0.2821   -2.3728    1.4732 H         1 <0>         0.1533
     45 H7          0.9603   -0.3741    1.3052 H         1 <0>         0.1300
     46 H8         -3.8520   -1.1038    0.5680 H         1 <0>         0.1741
     47 H9         -2.2838   -2.6176   -0.4482 H         1 <0>         0.1661
     48 H10        -3.1541    3.1818    4.9639 H         1 <0>         0.1548
     49 H11        -5.5684    2.7398    4.9359 H         1 <0>         0.1569
     50 H12        -5.6514   -2.4066    1.4762 H         1 <0>         0.1045
     51 H13        -4.2275   -2.1188    2.5048 H         1 <0>         0.0485
     52 H14        -5.8591   -1.7733    3.1266 H         1 <0>         0.0626
     53 H15        -7.2821    1.5398    2.7975 H         1 <0>         0.4000
     54 H16         1.5007    1.1283    2.0257 H         1 <0>         0.1611
     55 H17         3.7630    4.5036    4.9683 H         1 <0>         0.1406
     56 H18         1.6637    5.2927    6.2177 H         1 <0>         0.1917
     57 H19         6.5578    3.1573    1.8557 H         1 <0>         0.0712
     58 H20         5.5215    1.7819    1.3955 H         1 <0>         0.0913
     59 H21         6.2736    3.1564   -0.5786 H         1 <0>         0.0776
     60 H22         4.5029    3.0961   -0.4024 H         1 <0>         0.0622
     61 H23         6.3040    5.3466    0.6027 H         1 <0>         0.0679
     62 H24         5.2982    5.4095   -0.8642 H         1 <0>         0.0683
     63 H25         4.1406    6.5011    1.0273 H         1 <0>         0.0793
     64 H26         3.2685    5.0316    0.5270 H         1 <0>         0.0645
     65 H27         3.4236    5.0610    2.9622 H         1 <0>         0.0943
     66 H28         5.1883    5.2978    2.8784 H         1 <0>         0.0728
     67 H29         1.9113   -1.9093   -2.6538 H         1 <0>         0.0833
     68 H30         0.7883   -3.2413   -3.0185 H         1 <0>         0.0849
     69 H31         0.6035   -1.6718   -3.8376 H         1 <0>         0.1082
     70 H32        -1.6345   -1.9222   -3.2206 H         1 <0>         0.1025
     71 H33        -1.7016   -3.0632   -1.8561 H         1 <0>         0.0840
     72 H34        -2.1702   -1.3626   -1.6181 H         1 <0>         0.1027
     73 H35         1.2999   -2.2258   -0.3504 H         1 <0>         0.4323
@<TRIPOS>BOND
     1    1    2 1
     2    1   39 1
     3    1   40 1
     4    1   41 1
     5    2    7 1
     6    2    3 2
     7    3    4 1
     8    3   42 1
     9    4    5 1
    10    4   37 1
    11    4   38 1
    12    5    6 1
    13    5   43 1
    14    5   73 1
    15    6   11 1
    16    6    7 1
    17    6   44 1
    18    7    8 1
    19    7   45 1
    20    8   22 1
    21    8    9 2
    22    9   10 1
    23    9   12 1
    24   10   11 2
    25   10   46 1
    26   11   47 1
    27   12   17 ar
    28   12   13 ar
    29   13   14 ar
    30   13   21 1
    31   14   15 ar
    32   14   48 1
    33   15   16 ar
    34   15   49 1
    35   16   17 ar
    36   16   20 1
    37   17   18 1
    38   18   19 1
    39   19   50 1
    40   19   51 1
    41   19   52 1
    42   20   53 1
    43   21   22 1
    44   22   23 2
    45   23   24 1
    46   23   54 1
    47   24   28 1
    48   24   25 2
    49   25   26 1
    50   25   29 1
    51   26   27 2
    52   26   55 1
    53   27   28 1
    54   27   56 1
    55   29   30 2
    56   29   31 am
    57   31   36 1
    58   31   32 1
    59   32   33 1
    60   32   57 1
    61   32   58 1
    62   33   34 1
    63   33   59 1
    64   33   60 1
    65   34   35 1
    66   34   61 1
    67   34   62 1
    68   35   36 1
    69   35   63 1
    70   35   64 1
    71   36   65 1
    72   36   66 1
    73   37   67 1
    74   37   68 1
    75   37   69 1
    76   38   70 1
    77   38   71 1
    78   38   72 1
@<TRIPOS>MOLECULE
CHEMBL232573__6
   72    77     0     0     0
SMALL
USER_CHARGES

@<TRIPOS>ATOM
      1 C1          0.2084    0.6818    0.4209 C.3       1 <0>        -0.1204
      2 C2          0.4999   -0.8018    0.3796 C.2       1 <0>        -0.1073
      3 C3          0.4698   -1.3845   -0.7913 C.2       1 <0>        -0.1722
      4 C4          0.6505   -2.8605   -0.9836 C.3       1 <0>         0.1434
      5 N1          0.3697   -3.5701    0.2742 N.3       1 <0>        -0.6594
      6 C5          1.1516   -3.0182    1.3672 C.3       1 <0>         0.1185
      7 C6          0.7781   -1.5499    1.6256 C.3       1 <0>        -0.0307
      8 C7          1.7944   -1.0321    2.5837 C.2       1 <0>        -0.1048
      9 C8          1.9978   -1.8363    3.7189 C.2       1 <0>        -0.0044
     10 C9          1.3077   -3.1286    3.8002 C.2       1 <0>        -0.1238
     11 C10         0.9086   -3.7393    2.6732 C.2       1 <0>        -0.1141
     12 C11         2.8821   -1.3202    4.7729 C.ar      1 <0>        -0.1201
     13 C12         3.3399    0.0084    4.6712 C.ar      1 <0>         0.1282
     14 C13         4.1509    0.5418    5.6567 C.ar      1 <0>        -0.1234
     15 C14         4.5282   -0.2304    6.7395 C.ar      1 <0>        -0.0885
     16 C15         4.1009   -1.5446    6.8429 C.ar      1 <0>         0.0671
     17 C16         3.2827   -2.0966    5.8618 C.ar      1 <0>         0.1260
     18 O1          2.9017   -3.3957    5.9792 O.3       1 <0>        -0.3253
     19 C17         3.7587   -4.3785    5.3945 C.3       1 <0>         0.0390
     20 O2          4.4825   -2.3019    7.9078 O.3       1 <0>        -0.4862
     21 O3          2.9984    0.7554    3.5886 O.3       1 <0>        -0.2278
     22 C18         2.6235    0.0783    2.4696 C.2       1 <0>         0.1297
     23 C19         3.1723    0.4678    1.2707 C.2       1 <0>        -0.1038
     24 C20         4.0055    1.6013    1.2130 C.2       1 <0>        -0.0453
     25 C21         4.6547    2.1652    0.0978 C.2       1 <0>        -0.1845
     26 C22         5.4510    3.3392    0.3437 C.2       1 <0>        -0.1291
     27 C23         5.5248    3.8166    1.6001 C.2       1 <0>        -0.2003
     28 S1          4.5018    2.6938    2.5321 S.3       1 <0>         0.1144
     29 C24         4.5271    1.5885   -1.2396 C.2       1 <0>         0.5817
     30 O4          4.7638    0.4073   -1.4184 O.2       1 <0>        -0.5330
     31 N2          4.1475    2.3640   -2.2745 N.am      1 <0>        -0.6046
     32 C25         3.9243    1.7808   -3.6044 C.3       1 <0>         0.1110
     33 C26         2.5249    2.1752   -4.0872 C.3       1 <0>        -0.1338
     34 C27         2.3826    3.6981   -4.0367 C.3       1 <0>        -0.1208
     35 C28         2.5494    4.1802   -2.5938 C.3       1 <0>        -0.1354
     36 C29         3.9432    3.8075   -2.0927 C.3       1 <0>         0.0996
     37 C30        -0.3378   -3.3419   -2.0512 C.3       1 <0>        -0.1394
     38 C31         2.0712   -3.1525   -1.4560 C.3       1 <0>        -0.1321
     39 H1          1.1410    1.2381    0.3270 H         1 <0>         0.0702
     40 H2         -0.4559    0.9446   -0.4023 H         1 <0>         0.0643
     41 H3         -0.2700    0.9318    1.3678 H         1 <0>         0.0618
     42 H4          0.3069   -0.7704   -1.6607 H         1 <0>         0.1123
     43 H5         -0.6181   -3.5644    0.4799 H         1 <0>         0.3475
     44 H6          2.2146   -3.0767    1.1538 H         1 <0>         0.0966
     45 H7         -0.1825   -1.5853    2.1895 H         1 <0>         0.0896
     46 H8          1.0933   -3.5857    4.7546 H         1 <0>         0.1420
     47 H9          0.4334   -4.7018    2.6885 H         1 <0>         0.1392
     48 H10         4.4912    1.5645    5.5833 H         1 <0>         0.1477
     49 H11         5.1584    0.1931    7.5067 H         1 <0>         0.1490
     50 H12         3.3392   -5.3709    5.5597 H         1 <0>         0.0991
     51 H13         3.8452   -4.1942    4.3237 H         1 <0>         0.0476
     52 H14         4.7453   -4.3199    5.8542 H         1 <0>         0.0531
     53 H15         3.8785   -2.2534    8.6614 H         1 <0>         0.3940
     54 H16         2.9643   -0.0957    0.3731 H         1 <0>         0.1625
     55 H17         5.9785    3.8265   -0.4630 H         1 <0>         0.1373
     56 H18         6.0705    4.6774    1.9574 H         1 <0>         0.1877
     57 H19         4.6717    2.1616   -4.3005 H         1 <0>         0.0674
     58 H20         3.9976    0.6949   -3.5443 H         1 <0>         0.0928
     59 H21         2.3828    1.8303   -5.1114 H         1 <0>         0.0760
     60 H22         1.7751    1.7181   -3.4415 H         1 <0>         0.0657
     61 H23         3.1484    4.1554   -4.6632 H         1 <0>         0.0649
     62 H24         1.3963    3.9830   -4.4030 H         1 <0>         0.0662
     63 H25         2.4247    5.2623   -2.5551 H         1 <0>         0.0762
     64 H26         1.7994    3.7042   -1.9622 H         1 <0>         0.0664
     65 H27         4.0289    4.0585   -1.0354 H         1 <0>         0.0946
     66 H28         4.6922    4.3572   -2.6627 H         1 <0>         0.0689
     67 H29        -0.1432   -2.8201   -2.9882 H         1 <0>         0.0643
     68 H30        -0.2168   -4.4148   -2.2010 H         1 <0>         0.0681
     69 H31        -1.3564   -3.1333   -1.7239 H         1 <0>         0.0553
     70 H32         2.7824   -2.7974   -0.7101 H         1 <0>         0.0542
     71 H33         2.1949   -4.2267   -1.5935 H         1 <0>         0.0664
     72 H34         2.2517   -2.6419   -2.4020 H         1 <0>         0.0628
@<TRIPOS>BOND
     1    1    2 1
     2    1   39 1
     3    1   40 1
     4    1   41 1
     5    2    7 1
     6    2    3 2
     7    3    4 1
     8    3   42 1
     9    4    5 1
    10    4   37 1
    11    4   38 1
    12    5    6 1
    13    5   43 1
    14    6   11 1
    15    6    7 1
    16    6   44 1
    17    7    8 1
    18    7   45 1
    19    8   22 1
    20    8    9 2
    21    9   10 1
    22    9   12 1
    23   10   11 2
    24   10   46 1
    25   11   47 1
    26   12   17 ar
    27   12   13 ar
    28   13   14 ar
    29   13   21 1
    30   14   15 ar
    31   14   48 1
    32   15   16 ar
    33   15   49 1
    34   16   17 ar
    35   16   20 1
    36   17   18 1
    37   18   19 1
    38   19   50 1
    39   19   51 1
    40   19   52 1
    41   20   53 1
    42   21   22 1
    43   22   23 2
    44   23   24 1
    45   23   54 1
    46   24   28 1
    47   24   25 2
    48   25   26 1
    49   25   29 1
    50   26   27 2
    51   26   55 1
    52   27   28 1
    53   27   56 1
    54   29   30 2
    55   29   31 am
    56   31   36 1
    57   31   32 1
    58   32   33 1
    59   32   57 1
    60   32   58 1
    61   33   34 1
    62   33   59 1
    63   33   60 1
    64   34   35 1
    65   34   61 1
    66   34   62 1
    67   35   36 1
    68   35   63 1
    69   35   64 1
    70   36   65 1
    71   36   66 1
    72   37   67 1
    73   37   68 1
    74   37   69 1
    75   38   70 1
    76   38   71 1
    77   38   72 1
@<TRIPOS>MOLECULE
CHEMBL232573__7
   73    78     0     0     0
SMALL
USER_CHARGES

@<TRIPOS>ATOM
      1 C1          0.2141    0.6823    0.4152 C.3       1 <0>        -0.1308
      2 C2          0.5069   -0.8009    0.3774 C.2       1 <0>        -0.0771
      3 C3          0.4804   -1.3884   -0.7918 C.2       1 <0>        -0.1824
      4 C4          0.6594   -2.8647   -0.9770 C.3       1 <0>         0.1005
      5 N1          0.3637   -3.5732    0.2762 N.4       1 <0>        -0.4873
      6 C5          1.1578   -3.0174    1.3592 C.3       1 <0>         0.0516
      7 C6          0.7846   -1.5504    1.6235 C.3       1 <0>        -0.0077
      8 C7          1.7970   -1.0310    2.5845 C.2       1 <0>        -0.0999
      9 C8          2.0093   -1.8412    3.7139 C.2       1 <0>        -0.0086
     10 C9          1.3267   -3.1378    3.7920 C.2       1 <0>        -0.0399
     11 C10         0.9241   -3.7441    2.6647 C.2       1 <0>        -0.2052
     12 C11         2.8949   -1.3289    4.7683 C.ar      1 <0>        -0.1351
     13 C12         3.3340    0.0071    4.6831 C.ar      1 <0>         0.1352
     14 C13         4.1425    0.5373    5.6723 C.ar      1 <0>        -0.1209
     15 C14         4.5374   -0.2462    6.7410 C.ar      1 <0>        -0.0759
     16 C15         4.1301   -1.5681    6.8268 C.ar      1 <0>         0.0733
     17 C16         3.3147   -2.1167    5.8417 C.ar      1 <0>         0.1280
     18 O1          2.9576   -3.4243    5.9375 O.3       1 <0>        -0.3278
     19 C17         3.8293   -4.3809    5.3317 C.3       1 <0>         0.0365
     20 O2          4.5276   -2.3355    7.8786 O.3       1 <0>        -0.4843
     21 O3          2.9770    0.7615    3.6102 O.3       1 <0>        -0.2215
     22 C18         2.6149    0.0891    2.4833 C.2       1 <0>         0.1005
     23 C19         3.1673    0.4939    1.2912 C.2       1 <0>        -0.0714
     24 C20         3.9885    1.6367    1.2479 C.2       1 <0>        -0.0800
     25 C21         4.6388    2.2164    0.1415 C.2       1 <0>        -0.1585
     26 C22         5.4208    3.3969    0.4019 C.2       1 <0>        -0.1390
     27 C23         5.4811    3.8652    1.6624 C.2       1 <0>        -0.1805
     28 S1          4.4642    2.7241    2.5788 S.3       1 <0>         0.1328
     29 C24         4.5263    1.6488   -1.2011 C.2       1 <0>         0.5807
     30 O4          4.7770    0.4717   -1.3876 O.2       1 <0>        -0.5403
     31 N2          4.1451    2.4282   -2.2324 N.am      1 <0>        -0.6008
     32 C25         3.9370    1.8532   -3.5684 C.3       1 <0>         0.1095
     33 C26         2.5366    2.2361   -4.0573 C.3       1 <0>        -0.1315
     34 C27         2.3774    3.7570   -3.9959 C.3       1 <0>        -0.1240
     35 C28         2.5295    4.2295   -2.5483 C.3       1 <0>        -0.1341
     36 C29         3.9239    3.8680   -2.0408 C.3       1 <0>         0.0960
     37 C30        -0.3217   -3.3457   -2.0525 C.3       1 <0>        -0.1727
     38 C31         2.0816   -3.1631   -1.4396 C.3       1 <0>        -0.1707
     39 H1          1.1464    1.2392    0.3216 H         1 <0>         0.0859
     40 H2         -0.4492    0.9428   -0.4096 H         1 <0>         0.0807
     41 H3         -0.2660    0.9339    1.3609 H         1 <0>         0.0771
     42 H4          0.3208   -0.7778   -1.6649 H         1 <0>         0.1537
     43 H5         -0.6224   -3.4757    0.4871 H         1 <0>         0.4297
     44 H6          2.2188   -3.0760    1.1390 H         1 <0>         0.1499
     45 H7         -0.1771   -1.5875    2.1854 H         1 <0>         0.1205
     46 H8          1.1223   -3.6016    4.7454 H         1 <0>         0.1621
     47 H9          0.4524   -4.7084    2.6780 H         1 <0>         0.1572
     48 H10         4.4675    1.5660    5.6138 H         1 <0>         0.1524
     49 H11         5.1670    0.1743    7.5104 H         1 <0>         0.1550
     50 H12         3.4284   -5.3835    5.4809 H         1 <0>         0.1021
     51 H13         3.9076   -4.1762    4.2639 H         1 <0>         0.0430
     52 H14         4.8168   -4.3128    5.7880 H         1 <0>         0.0595
     53 H15         3.9265   -2.3072    8.6355 H         1 <0>         0.3993
     54 H16         2.9713   -0.0648    0.3880 H         1 <0>         0.1588
     55 H17         5.9482    3.8962   -0.3975 H         1 <0>         0.1427
     56 H18         6.0150    4.7290    2.0300 H         1 <0>         0.1934
     57 H19         4.6848    2.2474   -4.2565 H         1 <0>         0.0714
     58 H20         4.0216    0.7677   -3.5162 H         1 <0>         0.0914
     59 H21         2.4049    1.8978   -5.0851 H         1 <0>         0.0777
     60 H22         1.7875    1.7659   -3.4202 H         1 <0>         0.0622
     61 H23         3.1423    4.2274   -4.6137 H         1 <0>         0.0680
     62 H24         1.3905    4.0341   -4.3665 H         1 <0>         0.0687
     63 H25         2.3928    5.3099   -2.5019 H         1 <0>         0.0798
     64 H26         1.7806    3.7405   -1.9253 H         1 <0>         0.0647
     65 H27         4.0000    4.1115   -0.9811 H         1 <0>         0.0950
     66 H28         4.6706    4.4302   -2.6016 H         1 <0>         0.0737
     67 H29        -0.1172   -2.8269   -2.9891 H         1 <0>         0.1092
     68 H30        -0.2031   -4.4194   -2.1985 H         1 <0>         0.0855
     69 H31        -1.3424   -3.1328   -1.7346 H         1 <0>         0.0837
     70 H32         2.7893   -2.8070   -0.6910 H         1 <0>         0.0804
     71 H33         2.2026   -4.2383   -1.5716 H         1 <0>         0.0854
     72 H34         2.2692   -2.6573   -2.3867 H         1 <0>         0.1108
     73 H35         0.5728   -4.5567    0.1624 H         1 <0>         0.4328
@<TRIPOS>BOND
     1    1    2 1
     2    1   39 1
     3    1   40 1
     4    1   41 1
     5    2    7 1
     6    2    3 2
     7    3    4 1
     8    3   42 1
     9    4    5 1
    10    4   37 1
    11    4   38 1
    12    5    6 1
    13    5   43 1
    14    5   73 1
    15    6   11 1
    16    6    7 1
    17    6   44 1
    18    7    8 1
    19    7   45 1
    20    8   22 1
    21    8    9 2
    22    9   10 1
    23    9   12 1
    24   10   11 2
    25   10   46 1
    26   11   47 1
    27   12   17 ar
    28   12   13 ar
    29   13   14 ar
    30   13   21 1
    31   14   15 ar
    32   14   48 1
    33   15   16 ar
    34   15   49 1
    35   16   17 ar
    36   16   20 1
    37   17   18 1
    38   18   19 1
    39   19   50 1
    40   19   51 1
    41   19   52 1
    42   20   53 1
    43   21   22 1
    44   22   23 2
    45   23   24 1
    46   23   54 1
    47   24   28 1
    48   24   25 2
    49   25   26 1
    50   25   29 1
    51   26   27 2
    52   26   55 1
    53   27   28 1
    54   27   56 1
    55   29   30 2
    56   29   31 am
    57   31   36 1
    58   31   32 1
    59   32   33 1
    60   32   57 1
    61   32   58 1
    62   33   34 1
    63   33   59 1
    64   33   60 1
    65   34   35 1
    66   34   61 1
    67   34   62 1
    68   35   36 1
    69   35   63 1
    70   35   64 1
    71   36   65 1
    72   36   66 1
    73   37   67 1
    74   37   68 1
    75   37   69 1
    76   38   70 1
    77   38   71 1
    78   38   72 1
@<TRIPOS>MOLECULE
CHEMBL257079
   73    78     0     0     0
SMALL
USER_CHARGES

@<TRIPOS>ATOM
      1 C1         -0.0187    1.5258    0.0104 C.3       1 <0>        -0.1399
      2 C2          0.0021   -0.0041    0.0020 C.3       1 <0>        -0.0287
      3 C3          0.7421   -0.5109    1.2415 C.3       1 <0>        -0.1431
      4 C4         -1.4333   -0.5336    0.0129 C.3       1 <0>        -0.1301
      5 C5          0.7074   -0.4901   -1.2379 C.ar      1 <0>         0.1992
      6 C6          2.0853   -0.4106   -1.3155 C.ar      1 <0>        -0.1890
      7 C7          2.7244   -0.8604   -2.4605 C.ar      1 <0>         0.0282
      8 C8          1.9503   -1.3757   -3.4892 C.ar      1 <0>        -0.7437
      9 C9          0.5774   -1.4233   -3.3400 C.ar      1 <0>         0.2052
     10 N1          0.0036   -0.9911   -2.2339 N.ar      1 <0>        -0.4859
     11 S1          2.7078   -1.9617   -4.9682 S.o2      1 <0>         2.6953
     12 O1          1.7203   -1.8871   -5.9873 O.2       1 <0>        -0.9459
     13 O2          3.9612   -1.3004   -5.0721 O.2       1 <0>        -0.9493
     14 N2          3.0378   -3.5691   -4.7456 N.pl3     1 <0>        -0.9944
     15 C10         4.3248   -3.9790   -4.1747 C.3       1 <0>         0.1133
     16 C11         4.6802   -5.3782   -4.6933 C.3       1 <0>        -0.0907
     17 C12         3.5739   -6.3260   -4.2818 C.2       1 <0>        -0.0665
     18 C13         3.8807   -7.5853   -3.9712 C.2       1 <0>        -0.1042
     19 C14         2.7718   -8.4869   -3.6198 C.2       1 <0>         0.1265
     20 C15         1.4564   -8.1372   -3.9072 C.2       1 <0>        -0.2233
     21 C16         0.6436   -9.1630   -3.4676 C.2       1 <0>         0.0687
     22 N3          1.4016  -10.1040   -2.9491 N.2       1 <0>        -0.2843
     23 N4          2.7467   -9.7074   -3.0436 N.pl3     1 <0>        -0.2964
     24 C17         3.8593  -10.4446   -2.6170 C.ar      1 <0>         0.1482
     25 C18         5.0518  -10.3764   -3.3253 C.ar      1 <0>        -0.1045
     26 C19         6.1471  -11.1038   -2.9031 C.ar      1 <0>        -0.1323
     27 C20         6.0569  -11.9009   -1.7742 C.ar      1 <0>         0.0992
     28 C21         4.8686  -11.9703   -1.0665 C.ar      1 <0>        -0.1324
     29 C22         3.7726  -11.2400   -1.4820 C.ar      1 <0>        -0.0772
     30 F1          7.1295  -12.6121   -1.3631 F         1 <0>        -0.1336
     31 C23         1.1240   -6.8368   -4.5903 C.3       1 <0>        -0.0279
     32 C24         2.1685   -5.7918   -4.1913 C.3       1 <0>        -0.0206
     33 C25         2.0403   -4.5777   -5.1142 C.3       1 <0>         0.1326
     34 C26         1.8969   -5.3309   -2.7579 C.3       1 <0>        -0.0675
     35 C27         2.0563   -6.4969   -1.8166 C.ar      1 <0>        -0.0853
     36 C28         0.9710   -7.3015   -1.5236 C.ar      1 <0>        -0.0642
     37 C29         1.1161   -8.3713   -0.6609 C.ar      1 <0>        -0.1476
     38 C30         2.3491   -8.6372   -0.0899 C.ar      1 <0>         0.0997
     39 C31         3.4354   -7.8307   -0.3841 C.ar      1 <0>        -0.1571
     40 C32         3.2891   -6.7646   -1.2512 C.ar      1 <0>        -0.0829
     41 F2          2.4920   -9.6825    0.7540 F         1 <0>        -0.1427
     42 H1          1.0039    1.9031    0.0027 H         1 <0>         0.0590
     43 H2         -0.5459    1.8868   -0.8726 H         1 <0>         0.0602
     44 H3         -0.5289    1.8773    0.9072 H         1 <0>         0.0701
     45 H4          0.2319   -0.1594    2.1383 H         1 <0>         0.0695
     46 H5          0.7568   -1.6008    1.2356 H         1 <0>         0.0590
     47 H6          1.7647   -0.1336    1.2338 H         1 <0>         0.0607
     48 H7         -1.9605   -0.1726   -0.8702 H         1 <0>         0.0674
     49 H8         -1.4185   -1.6235    0.0069 H         1 <0>         0.0569
     50 H9         -1.9435   -0.1821    0.9097 H         1 <0>         0.0573
     51 H10         2.6566   -0.0029   -0.4946 H         1 <0>         0.1458
     52 H11         3.7995   -0.8104   -2.5493 H         1 <0>         0.1509
     53 H12        -0.0325   -1.8231   -4.1366 H         1 <0>         0.1712
     54 H13         5.0982   -3.2718   -4.4743 H         1 <0>         0.0990
     55 H14         4.2507   -4.0011   -3.0874 H         1 <0>         0.0692
     56 H15         4.7627   -5.3582   -5.7799 H         1 <0>         0.0947
     57 H16         5.6248   -5.7035   -4.2574 H         1 <0>         0.0933
     58 H17         4.9039   -7.9309   -3.9776 H         1 <0>         0.1315
     59 H18        -0.4338   -9.1882   -3.5376 H         1 <0>         0.1842
     60 H19         5.1224   -9.7552   -4.2059 H         1 <0>         0.1403
     61 H20         7.0746  -11.0512   -3.4540 H         1 <0>         0.1462
     62 H21         4.8001  -12.5928   -0.1865 H         1 <0>         0.1453
     63 H22         2.8474  -11.2909   -0.9273 H         1 <0>         0.1442
     64 H23         1.1411   -6.9768   -5.6711 H         1 <0>         0.0799
     65 H24         0.1345   -6.5025   -4.2782 H         1 <0>         0.0847
     66 H25         1.0413   -4.1522   -5.0189 H         1 <0>         0.0887
     67 H26         2.2045   -4.8909   -6.1453 H         1 <0>         0.0819
     68 H27         2.6044   -4.5468   -2.4882 H         1 <0>         0.0792
     69 H28         0.8806   -4.9433   -2.6873 H         1 <0>         0.0800
     70 H29         0.0092   -7.0937   -1.9688 H         1 <0>         0.1275
     71 H30         0.2679   -8.9995   -0.4319 H         1 <0>         0.1287
     72 H31         4.3976   -8.0369    0.0609 H         1 <0>         0.1254
     73 H32         4.1374   -6.1380   -1.4843 H         1 <0>         0.1228
@<TRIPOS>BOND
     1    1    2 1
     2    1   42 1
     3    1   43 1
     4    1   44 1
     5    2    3 1
     6    2    4 1
     7    2    5 1
     8    3   45 1
     9    3   46 1
    10    3   47 1
    11    4   48 1
    12    4   49 1
    13    4   50 1
    14    5   10 ar
    15    5    6 ar
    16    6    7 ar
    17    6   51 1
    18    7    8 ar
    19    7   52 1
    20    8    9 ar
    21    8   11 1
    22    9   10 ar
    23    9   53 1
    24   11   12 2
    25   11   13 2
    26   11   14 1
    27   14   33 1
    28   14   15 1
    29   15   16 1
    30   15   54 1
    31   15   55 1
    32   16   17 1
    33   16   56 1
    34   16   57 1
    35   17   32 1
    36   17   18 2
    37   18   19 1
    38   18   58 1
    39   19   23 1
    40   19   20 2
    41   20   21 1
    42   20   31 1
    43   21   22 2
    44   21   59 1
    45   22   23 1
    46   23   24 1
    47   24   29 ar
    48   24   25 ar
    49   25   26 ar
    50   25   60 1
    51   26   27 ar
    52   26   61 1
    53   27   28 ar
    54   27   30 1
    55   28   29 ar
    56   28   62 1
    57   29   63 1
    58   31   32 1
    59   31   64 1
    60   31   65 1
    61   32   33 1
    62   32   34 1
    63   33   66 1
    64   33   67 1
    65   34   35 1
    66   34   68 1
    67   34   69 1
    68   35   40 ar
    69   35   36 ar
    70   36   37 ar
    71   36   70 1
    72   37   38 ar
    73   37   71 1
    74   38   39 ar
    75   38   41 1
    76   39   40 ar
    77   39   72 1
    78   40   73 1
@<TRIPOS>MOLECULE
CHEMBL257079__1
   73    78     0     0     0
SMALL
USER_CHARGES

@<TRIPOS>ATOM
      1 C1         -0.0187    1.5258    0.0104 C.3       1 <0>        -0.1399
      2 C2          0.0021   -0.0041    0.0020 C.3       1 <0>        -0.0291
      3 C3          0.7421   -0.5109    1.2415 C.3       1 <0>        -0.1430
      4 C4         -1.4333   -0.5336    0.0129 C.3       1 <0>        -0.1305
      5 C5          0.7074   -0.4901   -1.2379 C.ar      1 <0>         0.1981
      6 C6          2.0853   -0.4106   -1.3155 C.ar      1 <0>        -0.1896
      7 C7          2.7244   -0.8604   -2.4605 C.ar      1 <0>         0.0268
      8 C8          1.9503   -1.3757   -3.4892 C.ar      1 <0>        -0.7440
      9 C9          0.5774   -1.4233   -3.3400 C.ar      1 <0>         0.2058
     10 N1          0.0036   -0.9911   -2.2339 N.ar      1 <0>        -0.4872
     11 S1          2.7078   -1.9617   -4.9682 S.o2      1 <0>         2.6955
     12 O1          1.7203   -1.8871   -5.9873 O.2       1 <0>        -0.9463
     13 O2          3.9612   -1.3004   -5.0721 O.2       1 <0>        -0.9479
     14 N2          3.0378   -3.5691   -4.7456 N.pl3     1 <0>        -0.9949
     15 C10         4.3248   -3.9790   -4.1747 C.3       1 <0>         0.1232
     16 C11         4.1454   -5.3147   -3.4422 C.3       1 <0>        -0.0937
     17 C12         3.6423   -6.3342   -4.4418 C.2       1 <0>        -0.0674
     18 C13         4.0324   -7.6033   -4.3261 C.2       1 <0>        -0.1033
     19 C14         3.4859   -8.5717   -5.2903 C.2       1 <0>         0.1253
     20 C15         2.3815   -8.2470   -6.0714 C.2       1 <0>        -0.2227
     21 C16         2.0988   -9.3357   -6.8720 C.2       1 <0>         0.0689
     22 N3          2.9627  -10.2892   -6.6012 N.2       1 <0>        -0.2839
     23 N4          3.8394   -9.8371   -5.5999 N.pl3     1 <0>        -0.2961
     24 C17         4.8893  -10.5672   -5.0271 C.ar      1 <0>         0.1473
     25 C18         6.0583   -9.9218   -4.6464 C.ar      1 <0>        -0.1030
     26 C19         7.0918  -10.6431   -4.0820 C.ar      1 <0>        -0.1339
     27 C20         6.9629  -12.0094   -3.8956 C.ar      1 <0>         0.1001
     28 C21         5.7978  -12.6549   -4.2746 C.ar      1 <0>        -0.1337
     29 C22         4.7598  -11.9362   -4.8341 C.ar      1 <0>        -0.0803
     30 F1          7.9753  -12.7134   -3.3437 F         1 <0>        -0.1336
     31 C23         1.7065   -6.9060   -5.9530 C.3       1 <0>        -0.0279
     32 C24         2.7549   -5.8614   -5.5633 C.3       1 <0>        -0.0157
     33 C25         2.0403   -4.5777   -5.1142 C.3       1 <0>         0.1223
     34 C26         3.6178   -5.5351   -6.7840 C.3       1 <0>        -0.0708
     35 C27         4.3644   -6.7708   -7.2162 C.ar      1 <0>        -0.0852
     36 C28         5.6126   -7.0436   -6.6884 C.ar      1 <0>        -0.0885
     37 C29         6.2980   -8.1767   -7.0836 C.ar      1 <0>        -0.1629
     38 C30         5.7340   -9.0389   -8.0086 C.ar      1 <0>         0.1029
     39 C31         4.4837   -8.7647   -8.5365 C.ar      1 <0>        -0.1464
     40 C32         3.7979   -7.6337   -8.1358 C.ar      1 <0>        -0.0641
     41 F2          6.4033  -10.1467   -8.3961 F         1 <0>        -0.1421
     42 H1          1.0039    1.9031    0.0027 H         1 <0>         0.0592
     43 H2         -0.5459    1.8868   -0.8726 H         1 <0>         0.0603
     44 H3         -0.5289    1.8773    0.9072 H         1 <0>         0.0704
     45 H4          0.2319   -0.1594    2.1383 H         1 <0>         0.0699
     46 H5          0.7568   -1.6008    1.2356 H         1 <0>         0.0589
     47 H6          1.7647   -0.1336    1.2338 H         1 <0>         0.0610
     48 H7         -1.9605   -0.1726   -0.8702 H         1 <0>         0.0674
     49 H8         -1.4185   -1.6235    0.0069 H         1 <0>         0.0568
     50 H9         -1.9435   -0.1821    0.9097 H         1 <0>         0.0578
     51 H10         2.6566   -0.0029   -0.4946 H         1 <0>         0.1465
     52 H11         3.7995   -0.8104   -2.5493 H         1 <0>         0.1511
     53 H12        -0.0325   -1.8231   -4.1366 H         1 <0>         0.1724
     54 H13         5.0570   -4.0968   -4.9735 H         1 <0>         0.0789
     55 H14         4.6695   -3.2210   -3.4714 H         1 <0>         0.0839
     56 H15         5.1012   -5.6413   -3.0325 H         1 <0>         0.0927
     57 H16         3.4195   -5.1988   -2.6374 H         1 <0>         0.0908
     58 H17         4.7234   -7.9093   -3.5546 H         1 <0>         0.1302
     59 H18         1.3017   -9.3944   -7.5984 H         1 <0>         0.1846
     60 H19         6.1594   -8.8564   -4.7919 H         1 <0>         0.1444
     61 H20         8.0014  -10.1416   -3.7861 H         1 <0>         0.1456
     62 H21         5.6993  -13.7205   -4.1288 H         1 <0>         0.1458
     63 H22         3.8496  -12.4393   -5.1254 H         1 <0>         0.1437
     64 H23         1.2594   -6.6360   -6.9098 H         1 <0>         0.0866
     65 H24         0.9336   -6.9522   -5.1858 H         1 <0>         0.0781
     66 H25         1.4064   -4.7928   -4.2540 H         1 <0>         0.0738
     67 H26         1.4266   -4.1995   -5.9318 H         1 <0>         0.1029
     68 H27         2.9799   -5.1924   -7.5987 H         1 <0>         0.0855
     69 H28         4.3304   -4.7517   -6.5262 H         1 <0>         0.0821
     70 H29         6.0526   -6.3707   -5.9672 H         1 <0>         0.1252
     71 H30         7.2733   -8.3894   -6.6715 H         1 <0>         0.1274
     72 H31         4.0429   -9.4363   -9.2583 H         1 <0>         0.1286
     73 H32         2.8208   -7.4219   -8.5441 H         1 <0>         0.1290
@<TRIPOS>BOND
     1    1    2 1
     2    1   42 1
     3    1   43 1
     4    1   44 1
     5    2    3 1
     6    2    4 1
     7    2    5 1
     8    3   45 1
     9    3   46 1
    10    3   47 1
    11    4   48 1
    12    4   49 1
    13    4   50 1
    14    5   10 ar
    15    5    6 ar
    16    6    7 ar
    17    6   51 1
    18    7    8 ar
    19    7   52 1
    20    8    9 ar
    21    8   11 1
    22    9   10 ar
    23    9   53 1
    24   11   12 2
    25   11   13 2
    26   11   14 1
    27   14   33 1
    28   14   15 1
    29   15   16 1
    30   15   54 1
    31   15   55 1
    32   16   17 1
    33   16   56 1
    34   16   57 1
    35   17   32 1
    36   17   18 2
    37   18   19 1
    38   18   58 1
    39   19   23 1
    40   19   20 2
    41   20   21 1
    42   20   31 1
    43   21   22 2
    44   21   59 1
    45   22   23 1
    46   23   24 1
    47   24   29 ar
    48   24   25 ar
    49   25   26 ar
    50   25   60 1
    51   26   27 ar
    52   26   61 1
    53   27   28 ar
    54   27   30 1
    55   28   29 ar
    56   28   62 1
    57   29   63 1
    58   31   32 1
    59   31   64 1
    60   31   65 1
    61   32   33 1
    62   32   34 1
    63   33   66 1
    64   33   67 1
    65   34   35 1
    66   34   68 1
    67   34   69 1
    68   35   40 ar
    69   35   36 ar
    70   36   37 ar
    71   36   70 1
    72   37   38 ar
    73   37   71 1
    74   38   39 ar
    75   38   41 1
    76   39   40 ar
    77   39   72 1
    78   40   73 1
@<TRIPOS>MOLECULE
CHEMBL402362
   47    50     0     0     0
SMALL
USER_CHARGES

@<TRIPOS>ATOM
      1 C1         -0.3200    1.3096   -0.2804 C.3       1 <0>        -0.1071
      2 C2         -0.2770   -0.1936   -0.1825 C.ar      1 <0>        -0.1533
      3 C3         -0.3757   -0.9591   -1.3241 C.ar      1 <0>        -0.0548
      4 C4         -0.3355   -2.3494   -1.2314 C.ar      1 <0>        -0.0871
      5 C5         -0.1976   -2.9586    0.0150 C.ar      1 <0>         0.0182
      6 C6         -0.0996   -2.1874    1.1594 C.ar      1 <0>        -0.1358
      7 C7         -0.1319   -0.8037    1.0601 C.ar      1 <0>         0.2360
      8 N1         -0.0203   -0.0013    2.2004 N.pl3     1 <0>        -0.7353
      9 C8         -0.1664   -0.6222    3.5238 C.3       1 <0>         0.1710
     10 C9          0.6484   -1.9223    3.5242 C.3       1 <0>        -0.1193
     11 C10         0.0433   -2.8777    2.4904 C.3       1 <0>        -0.0412
     12 C11         0.9673   -4.0873    2.3353 C.3       1 <0>        -0.1588
     13 C12        -1.6404   -0.9344    3.7898 C.3       1 <0>        -0.1621
     14 C13         0.3667    0.3237    4.6017 C.3       1 <0>        -0.1536
     15 Cl1        -0.1492   -4.6901    0.1315 Cl        1 <0>        -0.0549
     16 C14        -0.4398   -3.1788   -2.4561 C.ar      1 <0>        -0.0170
     17 C15         0.4910   -4.1979   -2.6874 C.ar      1 <0>        -0.1218
     18 C16         0.4066   -4.9679   -3.8095 C.ar      1 <0>        -0.0722
     19 C17        -0.6149   -4.7408   -4.7361 C.ar      1 <0>        -0.1067
     20 C18        -0.9874   -5.3632   -6.0085 C.2       1 <0>        -0.2060
     21 C19        -2.0748   -4.7169   -6.4588 C.2       1 <0>         0.0503
     22 N2         -2.4297   -3.7310   -5.5787 N.pl3     1 <0>        -0.5977
     23 H1         -3.1837   -3.1307   -5.6885 H         1 <0>         0.4150
     24 C20        -1.5567   -3.7187   -4.5131 C.ar      1 <0>         0.0939
     25 C21        -1.4643   -2.9434   -3.3644 C.ar      1 <0>        -0.1159
     26 H2          0.6913    1.6942   -0.4125 H         1 <0>         0.0677
     27 H3         -0.9336    1.6008   -1.1330 H         1 <0>         0.0688
     28 H4         -0.7488    1.7211    0.6333 H         1 <0>         0.0619
     29 H5         -0.4842   -0.4833   -2.2876 H         1 <0>         0.1303
     30 H6          0.1511    0.9500    2.1187 H         1 <0>         0.4023
     31 H7          1.6848   -1.7039    3.2671 H         1 <0>         0.0725
     32 H8          0.6040   -2.3808    4.5121 H         1 <0>         0.0785
     33 H9         -0.9367   -3.2152    2.8276 H         1 <0>         0.0834
     34 H10         1.7117   -3.8797    1.5666 H         1 <0>         0.0590
     35 H11         1.4688   -4.2852    3.2827 H         1 <0>         0.0505
     36 H12         0.3797   -4.9586    2.0462 H         1 <0>         0.0744
     37 H13        -2.0100   -1.6199    3.0272 H         1 <0>         0.0626
     38 H14        -1.7427   -1.3947    4.7725 H         1 <0>         0.0660
     39 H15        -2.2186   -0.0109    3.7592 H         1 <0>         0.0580
     40 H16        -0.1965    1.2567    4.5772 H         1 <0>         0.0619
     41 H17         0.2558   -0.1420    5.5809 H         1 <0>         0.0741
     42 H18         1.4205    0.5304    4.4148 H         1 <0>         0.0631
     43 H19         1.2812   -4.3752   -1.9729 H         1 <0>         0.1232
     44 H20         1.1286   -5.7523   -3.9823 H         1 <0>         0.1226
     45 H21        -0.4827   -6.1859   -6.4931 H         1 <0>         0.1459
     46 H22        -2.5924   -4.9415   -7.3797 H         1 <0>         0.1698
     47 H23        -2.1830   -2.1586   -3.1801 H         1 <0>         0.1195
@<TRIPOS>BOND
     1    1    2 1
     2    1   26 1
     3    1   27 1
     4    1   28 1
     5    2    7 ar
     6    2    3 ar
     7    3    4 ar
     8    3   29 1
     9    4    5 ar
    10    4   16 1
    11    5    6 ar
    12    5   15 1
    13    6   11 1
    14    6    7 ar
    15    7    8 1
    16    8    9 1
    17    8   30 1
    18    9   10 1
    19    9   13 1
    20    9   14 1
    21   10   11 1
    22   10   31 1
    23   10   32 1
    24   11   12 1
    25   11   33 1
    26   12   34 1
    27   12   35 1
    28   12   36 1
    29   13   37 1
    30   13   38 1
    31   13   39 1
    32   14   40 1
    33   14   41 1
    34   14   42 1
    35   16   25 ar
    36   16   17 ar
    37   17   18 ar
    38   17   43 1
    39   18   19 ar
    40   18   44 1
    41   19   24 ar
    42   19   20 1
    43   20   21 2
    44   20   45 1
    45   21   22 1
    46   21   46 1
    47   22   23 1
    48   22   24 1
    49   24   25 ar
    50   25   47 1
@<TRIPOS>MOLECULE
CHEMBL402362__1
   47    50     0     0     0
SMALL
USER_CHARGES

@<TRIPOS>ATOM
      1 C1         -0.1479    1.5788    0.1579 C.3       1 <0>        -0.1038
      2 C2         -0.1210    0.0731    0.1005 C.ar      1 <0>        -0.1534
      3 C3         -0.1673   -0.5684   -1.1182 C.ar      1 <0>        -0.0548
      4 C4         -0.1416   -1.9612   -1.1692 C.ar      1 <0>        -0.0870
      5 C5         -0.0674   -2.6982    0.0119 C.ar      1 <0>         0.0184
      6 C6         -0.0201   -2.0512    1.2338 C.ar      1 <0>        -0.1356
      7 C7         -0.0437   -0.6645    1.2783 C.ar      1 <0>         0.2362
      8 N1         -0.0010    0.0134    2.5011 N.pl3     1 <0>        -0.7361
      9 C8          0.3768   -0.7277    3.7120 C.3       1 <0>         0.1722
     10 C9         -0.3796   -2.0625    3.7000 C.3       1 <0>        -0.1202
     11 C10         0.0650   -2.8774    2.4903 C.3       1 <0>        -0.0409
     12 C11        -0.8264   -4.1122    2.3440 C.3       1 <0>        -0.1576
     13 C12        -0.0115    0.0768    4.9541 C.3       1 <0>        -0.1535
     14 C13         1.8847   -0.9866    3.7117 C.3       1 <0>        -0.1618
     15 Cl1        -0.0347   -4.4328   -0.0508 Cl        1 <0>        -0.0548
     16 C14        -0.1936   -2.6577   -2.4773 C.ar      1 <0>        -0.0169
     17 C15         0.7397   -3.6584   -2.7700 C.ar      1 <0>        -0.1220
     18 C16         0.7031   -4.3068   -3.9691 C.ar      1 <0>        -0.0721
     19 C17        -0.2717   -3.9724   -4.9134 C.ar      1 <0>        -0.1067
     20 C18        -0.5878   -4.4547   -6.2596 C.2       1 <0>        -0.2060
     21 C19        -1.6480   -3.7521   -6.6902 C.2       1 <0>         0.0502
     22 N2         -2.0371   -2.8586   -5.7294 N.pl3     1 <0>        -0.5978
     23 H1         -2.7807   -2.2411   -5.8109 H         1 <0>         0.4150
     24 C20        -1.2155   -2.9676   -4.6290 C.ar      1 <0>         0.0939
     25 C21        -1.1722   -2.3169   -3.4026 C.ar      1 <0>        -0.1158
     26 H2          0.8717    1.9622    0.1171 H         1 <0>         0.0691
     27 H3         -0.7153    1.9646   -0.6891 H         1 <0>         0.0683
     28 H4         -0.6195    1.8986    1.0871 H         1 <0>         0.0588
     29 H5         -0.2237    0.0061   -2.0310 H         1 <0>         0.1304
     30 H6         -0.2171    0.9578    2.5488 H         1 <0>         0.4016
     31 H7         -0.1616   -2.6141    4.6146 H         1 <0>         0.0790
     32 H8         -1.4511   -1.8745    3.6313 H         1 <0>         0.0707
     33 H9          1.0965   -3.1950    2.6428 H         1 <0>         0.0818
     34 H10        -0.2572   -4.9185    1.8813 H         1 <0>         0.0749
     35 H11        -1.1718   -4.4296    3.3279 H         1 <0>         0.0502
     36 H12        -1.6852   -3.8684    1.7187 H         1 <0>         0.0587
     37 H13        -1.0884    0.2452    4.9559 H         1 <0>         0.0628
     38 H14         0.2710   -0.4776    5.8491 H         1 <0>         0.0742
     39 H15         0.5062    1.0359    4.9423 H         1 <0>         0.0622
     40 H16         2.4167   -0.0354    3.6905 H         1 <0>         0.0584
     41 H17         2.1592   -1.5364    4.6119 H         1 <0>         0.0660
     42 H18         2.1526   -1.5723    2.8323 H         1 <0>         0.0626
     43 H19         1.4938   -3.9186   -2.0420 H         1 <0>         0.1232
     44 H20         1.4268   -5.0777   -4.1890 H         1 <0>         0.1226
     45 H21        -0.0666   -5.2287   -6.8034 H         1 <0>         0.1459
     46 H22        -2.1229   -3.8736   -7.6525 H         1 <0>         0.1699
     47 H23        -1.8931   -1.5468   -3.1712 H         1 <0>         0.1194
@<TRIPOS>BOND
     1    1    2 1
     2    1   26 1
     3    1   27 1
     4    1   28 1
     5    2    7 ar
     6    2    3 ar
     7    3    4 ar
     8    3   29 1
     9    4    5 ar
    10    4   16 1
    11    5    6 ar
    12    5   15 1
    13    6   11 1
    14    6    7 ar
    15    7    8 1
    16    8    9 1
    17    8   30 1
    18    9   10 1
    19    9   13 1
    20    9   14 1
    21   10   11 1
    22   10   31 1
    23   10   32 1
    24   11   12 1
    25   11   33 1
    26   12   34 1
    27   12   35 1
    28   12   36 1
    29   13   37 1
    30   13   38 1
    31   13   39 1
    32   14   40 1
    33   14   41 1
    34   14   42 1
    35   16   25 ar
    36   16   17 ar
    37   17   18 ar
    38   17   43 1
    39   18   19 ar
    40   18   44 1
    41   19   24 ar
    42   19   20 1
    43   20   21 2
    44   20   45 1
    45   21   22 1
    46   21   46 1
    47   22   23 1
    48   22   24 1
    49   24   25 ar
    50   25   47 1
@<TRIPOS>MOLECULE
CHEMBL395051
   68    71     0     0     0
SMALL
USER_CHARGES

@<TRIPOS>ATOM
      1 C1          0.5603   -0.7069   -1.2371 C.3       1 <0>        -0.1674
      2 C2          0.0021   -0.0041    0.0020 C.3       1 <0>         0.1323
      3 C3          0.6388   -0.5847    1.2384 C.2       1 <0>        -0.0704
      4 C4         -0.0740   -1.3418    2.0626 C.2       1 <0>        -0.1443
      5 C5          0.5359   -1.9198    3.3117 C.3       1 <0>         0.2132
      6 N1          1.9774   -2.1233    3.1182 N.pl3     1 <0>        -0.7434
      7 C6          2.7111   -1.1131    2.4938 C.ar      1 <0>         0.2196
      8 C7          2.0607   -0.3189    1.5355 C.ar      1 <0>        -0.1081
      9 C8          2.7570    0.6964    0.8934 C.ar      1 <0>        -0.0597
     10 C9          4.0986    0.9098    1.2025 C.ar      1 <0>        -0.0837
     11 C10         4.7366    0.1084    2.1495 C.ar      1 <0>        -0.0468
     12 C11         4.0425   -0.8903    2.7961 C.ar      1 <0>        -0.1769
     13 C12         4.8510    1.9920    0.5222 C.ar      1 <0>        -0.0688
     14 C13         4.8141    2.1041   -0.8658 C.ar      1 <0>        -0.0737
     15 C14         5.5160    3.1128   -1.4941 C.ar      1 <0>        -0.1549
     16 C15         6.2568    4.0142   -0.7502 C.ar      1 <0>        -0.0816
     17 C16         6.3005    3.9117    0.6274 C.ar      1 <0>        -0.2078
     18 C17         5.5957    2.9077    1.2715 C.ar      1 <0>         0.1357
     19 O1          5.6330    2.8097    2.6261 O.3       1 <0>        -0.3076
     20 C18         6.4146    3.7802    3.3255 C.3       1 <0>         0.0251
     21 C19        -0.1286   -3.2613    3.6276 C.3       1 <0>        -0.1515
     22 C20         0.3112   -0.9567    4.4792 C.3       1 <0>        -0.1573
     23 O2         -1.4130   -0.1944    0.0607 O.3       1 <0>        -0.3789
     24 C21        -2.1640    0.8178   -0.6125 C.3       1 <0>         0.0616
     25 C22        -3.6581    0.5138   -0.4854 C.3       1 <0>        -0.1128
     26 C23        -4.4623    1.5976   -1.2062 C.3       1 <0>        -0.0841
     27 C24        -4.1640    1.5416   -2.7058 C.3       1 <0>        -0.1177
     28 C25        -4.9681    2.6254   -3.4266 C.3       1 <0>        -0.1207
     29 C26        -6.4622    2.3911   -3.1947 C.3       1 <0>        -0.1210
     30 C27        -6.7605    2.4471   -1.6951 C.3       1 <0>        -0.1204
     31 C28        -5.9563    1.3633   -0.9742 C.3       1 <0>        -0.1133
     32 H1          0.3750   -1.7783   -1.1615 H         1 <0>         0.0643
     33 H2          0.0701   -0.3154   -2.1285 H         1 <0>         0.0589
     34 H3          1.6333   -0.5275   -1.3041 H         1 <0>         0.0685
     35 H4          0.2233    1.0618   -0.0542 H         1 <0>         0.0676
     36 H5         -1.1094   -1.5466    1.8336 H         1 <0>         0.1329
     37 H6          2.4088   -2.9391    3.4170 H         1 <0>         0.4014
     38 H7          2.2625    1.3156    0.1596 H         1 <0>         0.1209
     39 H8          5.7774    0.2778    2.3830 H         1 <0>         0.1220
     40 H9          4.5415   -1.5069    3.5290 H         1 <0>         0.1232
     41 H10         4.2372    1.4021   -1.4497 H         1 <0>         0.1289
     42 H11         5.4871    3.1987   -2.5703 H         1 <0>         0.1249
     43 H12         6.8036    4.8011   -1.2483 H         1 <0>         0.1244
     44 H13         6.8808    4.6179    1.2027 H         1 <0>         0.1285
     45 H14         7.4524    3.7151    2.9985 H         1 <0>         0.0553
     46 H15         6.0291    4.7777    3.1145 H         1 <0>         0.0549
     47 H16         6.3586    3.5882    4.3970 H         1 <0>         0.1003
     48 H17         0.0260   -3.9481    2.7955 H         1 <0>         0.0629
     49 H18         0.3120   -3.6810    4.5319 H         1 <0>         0.0625
     50 H19        -1.1972   -3.1104    3.7804 H         1 <0>         0.0741
     51 H20        -0.7586   -0.8117    4.6298 H         1 <0>         0.0651
     52 H21         0.7523   -1.3740    5.3844 H         1 <0>         0.0593
     53 H22         0.7797    0.0015    4.2550 H         1 <0>         0.0569
     54 H23        -1.9511    1.7877   -0.1630 H         1 <0>         0.0473
     55 H24        -1.8855    0.8367   -1.6662 H         1 <0>         0.0512
     56 H25        -3.8711   -0.4561   -0.9349 H         1 <0>         0.0707
     57 H26        -3.9367    0.4950    0.5683 H         1 <0>         0.0706
     58 H27        -4.1833    2.5767   -0.8166 H         1 <0>         0.0709
     59 H28        -3.0996    1.7085   -2.8710 H         1 <0>         0.0618
     60 H29        -4.4430    0.5625   -3.0954 H         1 <0>         0.0633
     61 H30        -4.6891    3.6044   -3.0370 H         1 <0>         0.0609
     62 H31        -4.7557    2.5854   -4.4949 H         1 <0>         0.0610
     63 H32        -7.0351    3.1632   -3.7082 H         1 <0>         0.0603
     64 H33        -6.7412    1.4120   -3.5842 H         1 <0>         0.0612
     65 H34        -6.4815    3.4262   -1.3055 H         1 <0>         0.0611
     66 H35        -7.8249    2.2802   -1.5298 H         1 <0>         0.0616
     67 H36        -6.2353    0.3843   -1.3638 H         1 <0>         0.0630
     68 H37        -6.1688    1.4033    0.0941 H         1 <0>         0.0624
@<TRIPOS>BOND
     1    1    2 1
     2    1   32 1
     3    1   33 1
     4    1   34 1
     5    2    3 1
     6    2   23 1
     7    2   35 1
     8    3    8 1
     9    3    4 2
    10    4    5 1
    11    4   36 1
    12    5    6 1
    13    5   21 1
    14    5   22 1
    15    6    7 1
    16    6   37 1
    17    7   12 ar
    18    7    8 ar
    19    8    9 ar
    20    9   10 ar
    21    9   38 1
    22   10   11 ar
    23   10   13 1
    24   11   12 ar
    25   11   39 1
    26   12   40 1
    27   13   18 ar
    28   13   14 ar
    29   14   15 ar
    30   14   41 1
    31   15   16 ar
    32   15   42 1
    33   16   17 ar
    34   16   43 1
    35   17   18 ar
    36   17   44 1
    37   18   19 1
    38   19   20 1
    39   20   45 1
    40   20   46 1
    41   20   47 1
    42   21   48 1
    43   21   49 1
    44   21   50 1
    45   22   51 1
    46   22   52 1
    47   22   53 1
    48   23   24 1
    49   24   25 1
    50   24   54 1
    51   24   55 1
    52   25   26 1
    53   25   56 1
    54   25   57 1
    55   26   31 1
    56   26   27 1
    57   26   58 1
    58   27   28 1
    59   27   59 1
    60   27   60 1
    61   28   29 1
    62   28   61 1
    63   28   62 1
    64   29   30 1
    65   29   63 1
    66   29   64 1
    67   30   31 1
    68   30   65 1
    69   30   66 1
    70   31   67 1
    71   31   68 1
@<TRIPOS>MOLECULE
CHEMBL395051__1
   68    71     0     0     0
SMALL
USER_CHARGES

@<TRIPOS>ATOM
      1 C1         -0.0187    1.5258    0.0104 C.3       1 <0>        -0.1723
      2 C2          0.0021   -0.0041    0.0020 C.3       1 <0>         0.1306
      3 C3          0.7074   -0.4901   -1.2379 C.2       1 <0>        -0.0473
      4 C4          0.0398   -1.1688   -2.1621 C.2       1 <0>        -0.1672
      5 C5          0.7264   -1.6779   -3.4013 C.3       1 <0>         0.2185
      6 N1          1.8583   -0.8062   -3.7416 N.pl3     1 <0>        -0.7449
      7 C6          2.6987   -0.3795   -2.7118 C.ar      1 <0>         0.2169
      8 C7          2.1438   -0.2081   -1.4332 C.ar      1 <0>        -0.1127
      9 C8          2.9480    0.2145   -0.3832 C.ar      1 <0>        -0.0411
     10 C9          4.2977    0.4721   -0.6135 C.ar      1 <0>        -0.0923
     11 C10         4.8357    0.3072   -1.8900 C.ar      1 <0>        -0.0451
     12 C11         4.0409   -0.1246   -2.9289 C.ar      1 <0>        -0.1833
     13 C12         5.1651    0.9236    0.5017 C.ar      1 <0>        -0.0641
     14 C13         4.7651    1.9815    1.3150 C.ar      1 <0>        -0.0717
     15 C14         5.5758    2.3980    2.3515 C.ar      1 <0>        -0.1549
     16 C15         6.7854    1.7683    2.5862 C.ar      1 <0>        -0.0831
     17 C16         7.1920    0.7181    1.7851 C.ar      1 <0>        -0.2083
     18 C17         6.3850    0.2857    0.7450 C.ar      1 <0>         0.1347
     19 O1          6.7808   -0.7506   -0.0394 O.3       1 <0>        -0.3075
     20 C18         8.0391   -1.3537    0.2686 C.3       1 <0>         0.0255
     21 C19         1.2365   -3.0987   -3.1520 C.3       1 <0>        -0.1578
     22 C20        -0.2691   -1.6945   -4.5631 C.3       1 <0>        -0.1526
     23 O2          0.6932   -0.4774    1.1597 O.3       1 <0>        -0.3721
     24 C21        -0.1498   -0.6889    2.2940 C.3       1 <0>         0.0595
     25 C22         0.6919   -1.1924    3.4683 C.3       1 <0>        -0.1129
     26 C23        -0.2108   -1.4188    4.6827 C.3       1 <0>        -0.0833
     27 C24        -0.7898   -0.0799    5.1444 C.3       1 <0>        -0.1172
     28 C25        -1.6924   -0.3063    6.3589 C.3       1 <0>        -0.1205
     29 C26        -0.8747   -0.9268    7.4935 C.3       1 <0>        -0.1208
     30 C27        -0.2957   -2.2656    7.0318 C.3       1 <0>        -0.1202
     31 C28         0.6069   -2.0392    5.8173 C.3       1 <0>        -0.1135
     32 H1          1.0039    1.9031    0.0027 H         1 <0>         0.0690
     33 H2         -0.5459    1.8868   -0.8726 H         1 <0>         0.0654
     34 H3         -0.5289    1.8773    0.9072 H         1 <0>         0.0597
     35 H4         -1.0205   -0.3814    0.0098 H         1 <0>         0.0661
     36 H5         -1.0141   -1.3595   -2.0228 H         1 <0>         0.1206
     37 H6          2.0181   -0.5342   -4.6588 H         1 <0>         0.4010
     38 H7          2.5304    0.3428    0.6045 H         1 <0>         0.1410
     39 H8          5.8823    0.5106   -2.0623 H         1 <0>         0.1202
     40 H9          4.4632   -0.2513   -3.9148 H         1 <0>         0.1211
     41 H10         3.8218    2.4755    1.1345 H         1 <0>         0.1280
     42 H11         5.2651    3.2185    2.9813 H         1 <0>         0.1238
     43 H12         7.4149    2.0994    3.3990 H         1 <0>         0.1233
     44 H13         8.1373    0.2308    1.9730 H         1 <0>         0.1274
     45 H14         8.8292   -0.6072    0.1882 H         1 <0>         0.0547
     46 H15         8.0140   -1.7482    1.2844 H         1 <0>         0.0546
     47 H16         8.2339   -2.1658   -0.4318 H         1 <0>         0.0996
     48 H17         0.3962   -3.7488   -2.9082 H         1 <0>         0.0640
     49 H18         1.7339   -3.4687   -4.0485 H         1 <0>         0.0597
     50 H19         1.9426   -3.0907   -2.3217 H         1 <0>         0.0587
     51 H20        -0.6377   -0.6841   -4.7401 H         1 <0>         0.0628
     52 H21         0.2267   -2.0629   -5.4612 H         1 <0>         0.0635
     53 H22        -1.1054   -2.3482   -4.3156 H         1 <0>         0.0732
     54 H23        -0.6318    0.2495    2.5684 H         1 <0>         0.0506
     55 H24        -0.9106   -1.4298    2.0482 H         1 <0>         0.0464
     56 H25         1.1738   -2.1307    3.1938 H         1 <0>         0.0704
     57 H26         1.4526   -0.4515    3.7141 H         1 <0>         0.0711
     58 H27        -1.0239   -2.0918    4.4107 H         1 <0>         0.0702
     59 H28         0.0233    0.5931    5.4165 H         1 <0>         0.0634
     60 H29        -1.3723    0.3621    4.3361 H         1 <0>         0.0615
     61 H30        -2.1049    0.6475    6.6878 H         1 <0>         0.0608
     62 H31        -2.5055   -0.9794    6.0868 H         1 <0>         0.0605
     63 H32        -0.0617   -0.2538    7.7655 H         1 <0>         0.0612
     64 H33        -1.5178   -1.0881    8.3587 H         1 <0>         0.0601
     65 H34         0.2868   -2.7077    7.8401 H         1 <0>         0.0614
     66 H35        -1.1088   -2.9387    6.7597 H         1 <0>         0.0608
     67 H36         1.0194   -2.9931    5.4884 H         1 <0>         0.0621
     68 H37         1.4200   -1.3662    6.0894 H         1 <0>         0.0630
@<TRIPOS>BOND
     1    1    2 1
     2    1   32 1
     3    1   33 1
     4    1   34 1
     5    2    3 1
     6    2   23 1
     7    2   35 1
     8    3    8 1
     9    3    4 2
    10    4    5 1
    11    4   36 1
    12    5    6 1
    13    5   21 1
    14    5   22 1
    15    6    7 1
    16    6   37 1
    17    7   12 ar
    18    7    8 ar
    19    8    9 ar
    20    9   10 ar
    21    9   38 1
    22   10   11 ar
    23   10   13 1
    24   11   12 ar
    25   11   39 1
    26   12   40 1
    27   13   18 ar
    28   13   14 ar
    29   14   15 ar
    30   14   41 1
    31   15   16 ar
    32   15   42 1
    33   16   17 ar
    34   16   43 1
    35   17   18 ar
    36   17   44 1
    37   18   19 1
    38   19   20 1
    39   20   45 1
    40   20   46 1
    41   20   47 1
    42   21   48 1
    43   21   49 1
    44   21   50 1
    45   22   51 1
    46   22   52 1
    47   22   53 1
    48   23   24 1
    49   24   25 1
    50   24   54 1
    51   24   55 1
    52   25   26 1
    53   25   56 1
    54   25   57 1
    55   26   31 1
    56   26   27 1
    57   26   58 1
    58   27   28 1
    59   27   59 1
    60   27   60 1
    61   28   29 1
    62   28   61 1
    63   28   62 1
    64   29   30 1
    65   29   63 1
    66   29   64 1
    67   30   31 1
    68   30   65 1
    69   30   66 1
    70   31   67 1
    71   31   68 1
@<TRIPOS>MOLECULE
CHEMBL430004
   62    65     0     0     0
SMALL
USER_CHARGES

@<TRIPOS>ATOM
      1 C1          0.8072   -0.7163    1.0908 C.3       1 <0>        -0.1680
      2 C2          0.0021   -0.0041    0.0020 C.3       1 <0>         0.1329
      3 C3         -1.3778   -0.6048   -0.0765 C.2       1 <0>        -0.0702
      4 C4         -1.7236   -1.3466   -1.1208 C.2       1 <0>        -0.1441
      5 C5         -3.1012   -1.9441   -1.2288 C.3       1 <0>         0.2132
      6 N1         -3.6508   -2.1831    0.1119 N.pl3     1 <0>        -0.7434
      7 C6         -3.4924   -1.1894    1.0796 C.ar      1 <0>         0.2197
      8 C7         -2.3498   -0.3758    1.0114 C.ar      1 <0>        -0.1085
      9 C8         -2.1575    0.6239    1.9557 C.ar      1 <0>        -0.0598
     10 C9         -3.0989    0.8025    2.9670 C.ar      1 <0>        -0.0833
     11 C10        -4.2255   -0.0180    3.0299 C.ar      1 <0>        -0.0465
     12 C11        -4.4230   -1.0012    2.0857 C.ar      1 <0>        -0.1767
     13 C12        -2.9026    1.8679    3.9801 C.ar      1 <0>        -0.0692
     14 C13        -1.6839    1.9856    4.6444 C.ar      1 <0>        -0.0736
     15 C14        -1.5062    2.9786    5.5864 C.ar      1 <0>        -0.1549
     16 C15        -2.5347    3.8585    5.8739 C.ar      1 <0>        -0.0814
     17 C16        -3.7480    3.7502    5.2210 C.ar      1 <0>        -0.2078
     18 C17        -3.9380    2.7619    4.2686 C.ar      1 <0>         0.1357
     19 O1         -5.1282    2.6582    3.6217 O.3       1 <0>        -0.3076
     20 C18        -6.1396    3.6064    3.9682 C.3       1 <0>         0.0251
     21 C19        -3.0218   -3.2696   -1.9889 C.3       1 <0>        -0.1516
     22 C20        -4.0150   -0.9798   -1.9878 C.3       1 <0>        -0.1574
     23 O2          0.6613   -0.1591   -1.2563 O.3       1 <0>        -0.3781
     24 C21         1.6039    0.8741   -1.5498 C.3       1 <0>         0.0684
     25 C22         2.2452    0.6072   -2.9130 C.3       1 <0>        -0.0789
     26 C23         3.2392    1.6968   -3.2225 C.ar      1 <0>        -0.0790
     27 C24         2.8302    2.8359   -3.8904 C.ar      1 <0>        -0.1014
     28 C25         3.7414    3.8356   -4.1745 C.ar      1 <0>        -0.1082
     29 C26         5.0632    3.6959   -3.7904 C.ar      1 <0>        -0.0365
     30 C27         5.4720    2.5556   -3.1220 C.ar      1 <0>        -0.1083
     31 C28         4.5586    1.5592   -2.8335 C.ar      1 <0>        -0.1015
     32 Cl1         6.2084    4.9508   -4.1474 Cl        1 <0>        -0.0690
     33 H1          1.8181   -0.3096    1.1199 H         1 <0>         0.0594
     34 H2          0.3262   -0.5637    2.0569 H         1 <0>         0.0693
     35 H3          0.8510   -1.7831    0.8711 H         1 <0>         0.0650
     36 H4         -0.0764    1.0561    0.2430 H         1 <0>         0.0689
     37 H5         -1.0047   -1.5246   -1.9069 H         1 <0>         0.1330
     38 H6         -4.1124   -3.0105    0.3198 H         1 <0>         0.4015
     39 H7         -1.2846    1.2579    1.9067 H         1 <0>         0.1209
     40 H8         -4.9504    0.1245    3.8176 H         1 <0>         0.1221
     41 H9         -5.2975   -1.6327    2.1390 H         1 <0>         0.1232
     42 H10        -0.8790    1.3004    4.4228 H         1 <0>         0.1289
     43 H11        -0.5611    3.0690    6.1012 H         1 <0>         0.1250
     44 H12        -2.3889    4.6332    6.6121 H         1 <0>         0.1245
     45 H13        -4.5472    4.4396    5.4498 H         1 <0>         0.1285
     46 H14        -6.3740    3.5164    5.0289 H         1 <0>         0.0554
     47 H15        -5.7798    4.6140    3.7598 H         1 <0>         0.0550
     48 H16        -7.0366    3.4121    3.3802 H         1 <0>         0.1004
     49 H17        -2.3677   -3.9572   -1.4527 H         1 <0>         0.0630
     50 H18        -4.0186   -3.7035   -2.0679 H         1 <0>         0.0626
     51 H19        -2.6224   -3.0925   -2.9875 H         1 <0>         0.0742
     52 H20        -3.6131   -0.8085   -2.9864 H         1 <0>         0.0652
     53 H21        -5.0129   -1.4112   -2.0668 H         1 <0>         0.0593
     54 H22        -4.0699   -0.0328   -1.4509 H         1 <0>         0.0570
     55 H23         1.0931    1.8368   -1.5707 H         1 <0>         0.0517
     56 H24         2.3769    0.8896   -0.7814 H         1 <0>         0.0520
     57 H25         2.7560   -0.3554   -2.8921 H         1 <0>         0.0843
     58 H26         1.4722    0.5917   -3.6814 H         1 <0>         0.0842
     59 H27         1.7984    2.9447   -4.1905 H         1 <0>         0.1331
     60 H28         3.4218    4.7253   -4.6966 H         1 <0>         0.1346
     61 H29         6.5037    2.4459   -2.8222 H         1 <0>         0.1346
     62 H30         4.8766    0.6711   -2.3075 H         1 <0>         0.1331
@<TRIPOS>BOND
     1    1    2 1
     2    1   33 1
     3    1   34 1
     4    1   35 1
     5    2    3 1
     6    2   23 1
     7    2   36 1
     8    3    8 1
     9    3    4 2
    10    4    5 1
    11    4   37 1
    12    5    6 1
    13    5   21 1
    14    5   22 1
    15    6    7 1
    16    6   38 1
    17    7   12 ar
    18    7    8 ar
    19    8    9 ar
    20    9   10 ar
    21    9   39 1
    22   10   11 ar
    23   10   13 1
    24   11   12 ar
    25   11   40 1
    26   12   41 1
    27   13   18 ar
    28   13   14 ar
    29   14   15 ar
    30   14   42 1
    31   15   16 ar
    32   15   43 1
    33   16   17 ar
    34   16   44 1
    35   17   18 ar
    36   17   45 1
    37   18   19 1
    38   19   20 1
    39   20   46 1
    40   20   47 1
    41   20   48 1
    42   21   49 1
    43   21   50 1
    44   21   51 1
    45   22   52 1
    46   22   53 1
    47   22   54 1
    48   23   24 1
    49   24   25 1
    50   24   55 1
    51   24   56 1
    52   25   26 1
    53   25   57 1
    54   25   58 1
    55   26   31 ar
    56   26   27 ar
    57   27   28 ar
    58   27   59 1
    59   28   29 ar
    60   28   60 1
    61   29   30 ar
    62   29   32 1
    63   30   31 ar
    64   30   61 1
    65   31   62 1
@<TRIPOS>MOLECULE
CHEMBL430004__1
   62    65     0     0     0
SMALL
USER_CHARGES

@<TRIPOS>ATOM
      1 C1         -0.0187    1.5258    0.0104 C.3       1 <0>        -0.1729
      2 C2          0.0021   -0.0041    0.0020 C.3       1 <0>         0.1315
      3 C3          0.7309   -0.5033    1.2229 C.2       1 <0>        -0.0481
      4 C4          1.8756   -1.1618    1.0933 C.2       1 <0>        -0.1658
      5 C5          2.6136   -1.6836    2.2972 C.3       1 <0>         0.2183
      6 N1          2.3291   -0.8395    3.4648 N.pl3     1 <0>        -0.7449
      7 C6          1.0106   -0.4376    3.6861 C.ar      1 <0>         0.2170
      8 C7          0.1779   -0.2568    2.5698 C.ar      1 <0>        -0.1128
      9 C8         -1.1399    0.1418    2.7496 C.ar      1 <0>        -0.0416
     10 C9         -1.6189    0.3663    4.0385 C.ar      1 <0>        -0.0919
     11 C10        -0.7796    0.1923    5.1392 C.ar      1 <0>        -0.0449
     12 C11         0.5240   -0.2156    4.9619 C.ar      1 <0>        -0.1829
     13 C12        -3.0252    0.7920    4.2409 C.ar      1 <0>        -0.0646
     14 C13        -3.5462    1.8568    3.5092 C.ar      1 <0>        -0.0719
     15 C14        -4.8554    2.2491    3.7013 C.ar      1 <0>        -0.1550
     16 C15        -5.6534    1.5885    4.6186 C.ar      1 <0>        -0.0828
     17 C16        -5.1464    0.5312    5.3501 C.ar      1 <0>        -0.2082
     18 C17        -3.8356    0.1228    5.1629 C.ar      1 <0>         0.1348
     19 O1         -3.3379   -0.9204    5.8769 O.3       1 <0>        -0.3075
     20 C18        -4.2241   -1.5560    6.8004 C.3       1 <0>         0.0254
     21 C19         2.1650   -3.1176    2.5858 C.3       1 <0>        -0.1579
     22 C20         4.1175   -1.6711    2.0158 C.3       1 <0>        -0.1528
     23 O2         -1.3386   -0.4987    0.0122 O.3       1 <0>        -0.3714
     24 C21        -1.8963   -0.6929   -1.2891 C.3       1 <0>         0.0664
     25 C22        -3.3260   -1.2214   -1.1575 C.3       1 <0>        -0.0795
     26 C23        -3.9142   -1.4262   -2.5297 C.ar      1 <0>        -0.0777
     27 C24        -4.5934   -0.3949   -3.1513 C.ar      1 <0>        -0.1014
     28 C25        -5.1331   -0.5821   -4.4098 C.ar      1 <0>        -0.1083
     29 C26        -4.9935   -1.8019   -5.0477 C.ar      1 <0>        -0.0369
     30 C27        -4.3137   -2.8336   -4.4251 C.ar      1 <0>        -0.1083
     31 C28        -3.7695   -2.6434   -3.1689 C.ar      1 <0>        -0.1017
     32 Cl1        -5.6715   -2.0380   -6.6282 Cl        1 <0>        -0.0694
     33 H1          1.0039    1.9031    0.0027 H         1 <0>         0.0662
     34 H2         -0.5459    1.8868   -0.8726 H         1 <0>         0.0601
     35 H3         -0.5289    1.8773    0.9072 H         1 <0>         0.0696
     36 H4          0.5123   -0.3556   -0.8948 H         1 <0>         0.0675
     37 H5          2.2846   -1.3265    0.1074 H         1 <0>         0.1209
     38 H6          3.0394   -0.5683    4.0672 H         1 <0>         0.4012
     39 H7         -1.7886    0.2772    1.8968 H         1 <0>         0.1408
     40 H8         -1.1566    0.3700    6.1356 H         1 <0>         0.1202
     41 H9          1.1687   -0.3495    5.8179 H         1 <0>         0.1211
     42 H10        -2.9261    2.3749    2.7927 H         1 <0>         0.1282
     43 H11        -5.2584    3.0749    3.1338 H         1 <0>         0.1239
     44 H12        -6.6770    1.9007    4.7639 H         1 <0>         0.1234
     45 H13        -5.7739    0.0196    6.0649 H         1 <0>         0.1275
     46 H14        -4.5609   -0.8292    7.5396 H         1 <0>         0.0548
     47 H15        -5.0851   -1.9533    6.2629 H         1 <0>         0.0547
     48 H16        -3.7022   -2.3702    7.3030 H         1 <0>         0.0996
     49 H17         2.3838   -3.7473    1.7234 H         1 <0>         0.0641
     50 H18         2.6986   -3.4969    3.4573 H         1 <0>         0.0598
     51 H19         1.0929   -3.1303    2.7823 H         1 <0>         0.0588
     52 H20         4.4393   -0.6512    1.8054 H         1 <0>         0.0629
     53 H21         4.6532   -2.0488    2.8867 H         1 <0>         0.0637
     54 H22         4.3313   -2.3045    1.1549 H         1 <0>         0.0733
     55 H23        -1.9077    0.2563   -1.8248 H         1 <0>         0.0514
     56 H24        -1.2917   -1.4136   -1.8397 H         1 <0>         0.0508
     57 H25        -3.3146   -2.1706   -0.6217 H         1 <0>         0.0840
     58 H26        -3.9306   -0.5007   -0.6069 H         1 <0>         0.0845
     59 H27        -4.7026    0.5571   -2.6531 H         1 <0>         0.1331
     60 H28        -5.6640    0.2235   -4.8952 H         1 <0>         0.1344
     61 H29        -4.2046   -3.7861   -4.9224 H         1 <0>         0.1343
     62 H30        -3.2347   -3.4472   -2.6848 H         1 <0>         0.1328
@<TRIPOS>BOND
     1    1    2 1
     2    1   33 1
     3    1   34 1
     4    1   35 1
     5    2    3 1
     6    2   23 1
     7    2   36 1
     8    3    8 1
     9    3    4 2
    10    4    5 1
    11    4   37 1
    12    5    6 1
    13    5   21 1
    14    5   22 1
    15    6    7 1
    16    6   38 1
    17    7   12 ar
    18    7    8 ar
    19    8    9 ar
    20    9   10 ar
    21    9   39 1
    22   10   11 ar
    23   10   13 1
    24   11   12 ar
    25   11   40 1
    26   12   41 1
    27   13   18 ar
    28   13   14 ar
    29   14   15 ar
    30   14   42 1
    31   15   16 ar
    32   15   43 1
    33   16   17 ar
    34   16   44 1
    35   17   18 ar
    36   17   45 1
    37   18   19 1
    38   19   20 1
    39   20   46 1
    40   20   47 1
    41   20   48 1
    42   21   49 1
    43   21   50 1
    44   21   51 1
    45   22   52 1
    46   22   53 1
    47   22   54 1
    48   23   24 1
    49   24   25 1
    50   24   55 1
    51   24   56 1
    52   25   26 1
    53   25   57 1
    54   25   58 1
    55   26   31 ar
    56   26   27 ar
    57   27   28 ar
    58   27   59 1
    59   28   29 ar
    60   28   60 1
    61   29   30 ar
    62   29   32 1
    63   30   31 ar
    64   30   61 1
    65   31   62 1
@<TRIPOS>MOLECULE
CHEMBL291610
   44    47     0     0     0
SMALL
USER_CHARGES

@<TRIPOS>ATOM
      1 C1         -0.0173    1.4248    0.0099 C.3       1 <0>         0.0220
      2 O1          0.0021   -0.0041    0.0020 O.3       1 <0>        -0.2997
      3 C2          0.6056   -0.6069   -1.0554 C.ar      1 <0>         0.1451
      4 C3          1.1740    0.1579   -2.0642 C.ar      1 <0>        -0.2265
      5 C4          1.7858   -0.4580   -3.1401 C.ar      1 <0>        -0.0750
      6 C5          1.8282   -1.8377   -3.2300 C.ar      1 <0>        -0.1719
      7 C6          1.2605   -2.6158   -2.2359 C.ar      1 <0>         0.1456
      8 C7          0.6628   -1.9953   -1.1309 C.ar      1 <0>        -0.0924
      9 C8          0.0910   -2.8569   -0.0705 C.ar      1 <0>        -0.1514
     10 C9         -0.7527   -2.3460    0.9084 C.ar      1 <0>        -0.0333
     11 C10        -1.2775   -3.1905    1.8659 C.ar      1 <0>        -0.2568
     12 C11        -0.9639   -4.5447    1.8473 C.ar      1 <0>         0.2953
     13 C12        -0.1135   -5.0547    0.8721 C.ar      1 <0>        -0.1619
     14 C13         0.4209   -4.2147   -0.0786 C.ar      1 <0>        -0.0790
     15 C14         1.3837   -4.7304   -1.1158 C.3       1 <0>         0.1928
     16 O2          1.2653   -3.9696   -2.3244 O.3       1 <0>        -0.3084
     17 C15         1.0715   -6.1748   -1.4110 C.ar      1 <0>        -0.1192
     18 C16         1.7487   -7.1887   -0.7503 C.ar      1 <0>        -0.0592
     19 C17         1.4284   -8.5029   -1.0539 C.ar      1 <0>        -0.1730
     20 C18         0.4517   -8.7571   -1.9983 C.ar      1 <0>         0.0952
     21 N1         -0.1716   -7.7675   -2.6073 N.ar      1 <0>        -0.4866
     22 C19         0.1028   -6.5057   -2.3392 C.ar      1 <0>         0.1309
     23 N2         -1.5050   -5.3969    2.8125 N.2       1 <0>        -1.0946
     24 S1         -2.5176   -4.7936    3.9757 S.o2      1 <0>         2.5258
     25 O3         -1.7125   -3.8954    4.7269 O.2       1 <0>        -1.0285
     26 O4         -3.6524   -4.3244    3.2606 O.2       1 <0>        -1.0277
     27 C20        -2.9680   -6.2277    4.9912 C.3       1 <0>        -0.6374
     28 H1          1.0053    1.8021    0.0021 H         1 <0>         0.0525
     29 H2         -0.5445    1.7859   -0.8732 H         1 <0>         0.0528
     30 H3         -0.5275    1.7763    0.9067 H         1 <0>         0.0974
     31 H4          1.1386    1.2359   -2.0085 H         1 <0>         0.1253
     32 H5          2.2341    0.1432   -3.9172 H         1 <0>         0.1251
     33 H6          2.3047   -2.3085   -4.0773 H         1 <0>         0.1276
     34 H7         -0.9961   -1.2939    0.9202 H         1 <0>         0.1295
     35 H8         -1.9326   -2.7989    2.6300 H         1 <0>         0.1051
     36 H9          0.1271   -6.1075    0.8608 H         1 <0>         0.1153
     37 H10         2.4011   -4.6560   -0.7317 H         1 <0>         0.0851
     38 H11         2.5078   -6.9599   -0.0169 H         1 <0>         0.1366
     39 H12         1.9359   -9.3177   -0.5590 H         1 <0>         0.1350
     40 H13         0.1963   -9.7782   -2.2405 H         1 <0>         0.1527
     41 H14        -0.4325   -5.7219   -2.8545 H         1 <0>         0.1576
     42 H15        -2.0678   -6.6620    5.4261 H         1 <0>         0.1152
     43 H16        -3.6405   -5.9114    5.7885 H         1 <0>         0.1018
     44 H17        -3.4662   -6.9713    4.3692 H         1 <0>         0.1154
@<TRIPOS>BOND
     1    1    2 1
     2    1   28 1
     3    1   29 1
     4    1   30 1
     5    2    3 1
     6    3    8 ar
     7    3    4 ar
     8    4    5 ar
     9    4   31 1
    10    5    6 ar
    11    5   32 1
    12    6    7 ar
    13    6   33 1
    14    7   16 1
    15    7    8 ar
    16    8    9 1
    17    9   14 ar
    18    9   10 ar
    19   10   11 ar
    20   10   34 1
    21   11   12 ar
    22   11   35 1
    23   12   13 ar
    24   12   23 1
    25   13   14 ar
    26   13   36 1
    27   14   15 1
    28   15   16 1
    29   15   17 1
    30   15   37 1
    31   17   22 ar
    32   17   18 ar
    33   18   19 ar
    34   18   38 1
    35   19   20 ar
    36   19   39 1
    37   20   21 ar
    38   20   40 1
    39   21   22 ar
    40   22   41 1
    41   23   24 1
    42   24   25 2
    43   24   26 2
    44   24   27 1
    45   27   42 1
    46   27   43 1
    47   27   44 1
@<TRIPOS>MOLECULE
CHEMBL291610__1
   44    47     0     0     0
SMALL
USER_CHARGES

@<TRIPOS>ATOM
      1 C1         -0.0173    1.4248    0.0099 C.3       1 <0>         0.0216
      2 O1          0.0021   -0.0041    0.0020 O.3       1 <0>        -0.2991
      3 C2          0.6056   -0.6069   -1.0554 C.ar      1 <0>         0.1461
      4 C3          1.1740    0.1579   -2.0642 C.ar      1 <0>        -0.2253
      5 C4          1.7850   -0.4580   -3.1405 C.ar      1 <0>        -0.0726
      6 C5          1.8274   -1.8377   -3.2305 C.ar      1 <0>        -0.1747
      7 C6          1.2613   -2.6158   -2.2354 C.ar      1 <0>         0.1397
      8 C7          0.6628   -1.9953   -1.1309 C.ar      1 <0>        -0.0952
      9 C8          0.0910   -2.8569   -0.0705 C.ar      1 <0>        -0.1494
     10 C9         -0.7527   -2.3460    0.9084 C.ar      1 <0>        -0.0332
     11 C10        -1.2775   -3.1905    1.8659 C.ar      1 <0>        -0.2560
     12 C11        -0.9632   -4.5446    1.8478 C.ar      1 <0>         0.2956
     13 C12        -0.1128   -5.0545    0.8727 C.ar      1 <0>        -0.1638
     14 C13         0.4209   -4.2147   -0.0786 C.ar      1 <0>        -0.0757
     15 C14         1.3837   -4.7304   -1.1158 C.3       1 <0>         0.1904
     16 O2          1.2669   -3.9696   -2.3235 O.3       1 <0>        -0.3015
     17 C15         2.7903   -4.6276   -0.5847 C.ar      1 <0>        -0.1519
     18 C16         3.4284   -5.7444   -0.0665 C.ar      1 <0>        -0.0585
     19 C17         4.7222   -5.6028    0.4109 C.ar      1 <0>        -0.1744
     20 C18         5.3288   -4.3620    0.3549 C.ar      1 <0>         0.0912
     21 N1          4.6912   -3.3215   -0.1444 N.ar      1 <0>        -0.4836
     22 C19         3.4624   -3.4206   -0.6131 C.ar      1 <0>         0.1130
     23 N2         -1.5035   -5.3966    2.8136 N.2       1 <0>        -1.0954
     24 S1         -2.5161   -4.7933    3.9768 S.o2      1 <0>         2.5260
     25 O3         -1.7113   -3.8943    4.7273 O.2       1 <0>        -1.0282
     26 O4         -3.6514   -4.3251    3.2618 O.2       1 <0>        -1.0279
     27 C20        -2.9654   -6.2271    4.9931 C.3       1 <0>        -0.6375
     28 H1          1.0053    1.8021    0.0021 H         1 <0>         0.0533
     29 H2         -0.5445    1.7859   -0.8732 H         1 <0>         0.0531
     30 H3         -0.5275    1.7763    0.9067 H         1 <0>         0.0975
     31 H4          1.1386    1.2359   -2.0085 H         1 <0>         0.1265
     32 H5          2.2327    0.1432   -3.9180 H         1 <0>         0.1263
     33 H6          2.3032   -2.3085   -4.0781 H         1 <0>         0.1284
     34 H7         -0.9961   -1.2939    0.9202 H         1 <0>         0.1296
     35 H8         -1.9326   -2.7989    2.6300 H         1 <0>         0.1052
     36 H9          0.1284   -6.1072    0.8618 H         1 <0>         0.1159
     37 H10         1.1579   -5.7751   -1.3293 H         1 <0>         0.1295
     38 H11         2.9293   -6.7016   -0.0352 H         1 <0>         0.1379
     39 H12         5.2494   -6.4512    0.8218 H         1 <0>         0.1346
     40 H13         6.3365   -4.2434    0.7248 H         1 <0>         0.1526
     41 H14         2.9741   -2.5472   -1.0195 H         1 <0>         0.1573
     42 H15        -2.0649   -6.6608    5.4279 H         1 <0>         0.1152
     43 H16        -3.6380   -5.9109    5.7904 H         1 <0>         0.1018
     44 H17        -3.4634   -6.9713    4.3715 H         1 <0>         0.1155
@<TRIPOS>BOND
     1    1    2 1
     2    1   28 1
     3    1   29 1
     4    1   30 1
     5    2    3 1
     6    3    8 ar
     7    3    4 ar
     8    4    5 ar
     9    4   31 1
    10    5    6 ar
    11    5   32 1
    12    6    7 ar
    13    6   33 1
    14    7   16 1
    15    7    8 ar
    16    8    9 1
    17    9   14 ar
    18    9   10 ar
    19   10   11 ar
    20   10   34 1
    21   11   12 ar
    22   11   35 1
    23   12   13 ar
    24   12   23 1
    25   13   14 ar
    26   13   36 1
    27   14   15 1
    28   15   16 1
    29   15   17 1
    30   15   37 1
    31   17   22 ar
    32   17   18 ar
    33   18   19 ar
    34   18   38 1
    35   19   20 ar
    36   19   39 1
    37   20   21 ar
    38   20   40 1
    39   21   22 ar
    40   22   41 1
    41   23   24 1
    42   24   25 2
    43   24   26 2
    44   24   27 1
    45   27   42 1
    46   27   43 1
    47   27   44 1
@<TRIPOS>MOLECULE
CHEMBL77779
   49    52     0     0     0
SMALL
USER_CHARGES

@<TRIPOS>ATOM
      1 C1         -0.0167    1.3781    0.0096 C.ar      1 <0>        -0.1232
      2 C2          1.1709    2.0855    0.0021 C.ar      1 <0>        -0.1179
      3 C3          2.3773    1.4107   -0.0130 C.ar      1 <0>        -0.1017
      4 C4          2.3960    0.0285   -0.0201 C.ar      1 <0>        -0.0773
      5 C5          1.2084   -0.6789   -0.0117 C.ar      1 <0>        -0.1220
      6 C6          0.0021   -0.0041    0.0020 C.ar      1 <0>        -0.1211
      7 C7          3.7112   -0.7071   -0.0376 C.3       1 <0>        -0.0804
      8 C8          4.1714   -0.9633    1.3989 C.3       1 <0>        -0.0018
      9 C9          3.1293   -1.8287    2.1042 C.3       1 <0>        -0.1093
     10 C10         2.9553   -3.1326    1.3186 C.3       1 <0>        -0.1459
     11 C11         4.2887   -3.8760    1.2370 C.3       1 <0>         0.2586
     12 C12         5.3395   -2.9937    0.5551 C.3       1 <0>        -0.0998
     13 C13         5.5045   -1.7090    1.3647 C.3       1 <0>        -0.0759
     14 H1          5.8082   -1.9570    2.3818 H         1 <0>         0.0790
     15 C14         6.5500   -0.7911    0.7306 C.3       1 <0>        -0.1168
     16 C15         6.8416    0.3466    1.7085 C.3       1 <0>        -0.0812
     17 C16         5.5679    0.9669    2.2194 C.ar      1 <0>        -0.0552
     18 C17         4.3306    0.3555    2.1005 C.ar      1 <0>        -0.0736
     19 C18         3.1941    0.9722    2.6048 C.ar      1 <0>        -0.0826
     20 C19         3.2823    2.1871    3.2512 C.ar      1 <0>        -0.1490
     21 C20         4.5188    2.7986    3.3974 C.ar      1 <0>         0.1044
     22 C21         5.6609    2.1988    2.8524 C.ar      1 <0>        -0.1504
     23 O1          4.6167    3.9979    4.0291 O.3       1 <0>        -0.5000
     24 C22         4.7428   -4.2153    2.5955 C.1       1 <0>        -0.1575
     25 C23         5.1050   -4.4859    3.6789 C.1       1 <0>        -0.1621
     26 Cl1         5.6110   -4.8640    5.1924 Cl        1 <0>         0.1139
     27 O2          4.1165   -5.0775    0.4828 O.3       1 <0>        -0.5446
     28 H2         -0.9591    1.9053    0.0259 H         1 <0>         0.1187
     29 H3          1.1563    3.1654    0.0076 H         1 <0>         0.1185
     30 H4          3.3051    1.9634   -0.0196 H         1 <0>         0.1168
     31 H5          1.2231   -1.7588   -0.0176 H         1 <0>         0.1216
     32 H6         -0.9258   -0.5567    0.0082 H         1 <0>         0.1196
     33 H7          3.5884   -1.6586   -0.5549 H         1 <0>         0.0853
     34 H8          4.4573   -0.1052   -0.5563 H         1 <0>         0.0791
     35 H9          3.4662   -2.0541    3.1161 H         1 <0>         0.0679
     36 H10         2.1789   -1.2966    2.1438 H         1 <0>         0.0801
     37 H11         2.2204   -3.7620    1.8205 H         1 <0>         0.0727
     38 H12         2.6062   -2.9043    0.3116 H         1 <0>         0.0911
     39 H13         6.2908   -3.5242    0.5139 H         1 <0>         0.0793
     40 H14         5.0113   -2.7493   -0.4551 H         1 <0>         0.0898
     41 H15         7.4637   -1.3530    0.5370 H         1 <0>         0.0737
     42 H16         6.1634   -0.3833   -0.2033 H         1 <0>         0.0744
     43 H17         7.4116   -0.0442    2.5514 H         1 <0>         0.0774
     44 H18         7.4326    1.1099    1.2023 H         1 <0>         0.0779
     45 H19         2.2316    0.4960    2.4902 H         1 <0>         0.1254
     46 H20         2.3932    2.6603    3.6413 H         1 <0>         0.1251
     47 H21         6.6241    2.6763    2.9552 H         1 <0>         0.1258
     48 H22         4.7593    3.9295    4.9831 H         1 <0>         0.3899
     49 H23         3.4702   -5.6897    0.8605 H         1 <0>         0.3831
@<TRIPOS>BOND
     1    1    6 ar
     2    1    2 ar
     3    1   28 1
     4    2    3 ar
     5    2   29 1
     6    3    4 ar
     7    3   30 1
     8    4    5 ar
     9    4    7 1
    10    5    6 ar
    11    5   31 1
    12    6   32 1
    13    7    8 1
    14    7   33 1
    15    7   34 1
    16    8   13 1
    17    8   18 1
    18    8    9 1
    19    9   10 1
    20    9   35 1
    21    9   36 1
    22   10   11 1
    23   10   37 1
    24   10   38 1
    25   11   12 1
    26   11   24 1
    27   11   27 1
    28   12   13 1
    29   12   39 1
    30   12   40 1
    31   13   14 1
    32   13   15 1
    33   15   16 1
    34   15   41 1
    35   15   42 1
    36   16   17 1
    37   16   43 1
    38   16   44 1
    39   17   22 ar
    40   17   18 ar
    41   18   19 ar
    42   19   20 ar
    43   19   45 1
    44   20   21 ar
    45   20   46 1
    46   21   22 ar
    47   21   23 1
    48   22   47 1
    49   23   48 1
    50   24   25 3
    51   25   26 1
    52   27   49 1
@<TRIPOS>MOLECULE
CHEMBL442744
   50    52     0     0     0
SMALL
USER_CHARGES

@<TRIPOS>ATOM
      1 C1         -0.0187    1.5258    0.0104 C.3       1 <0>        -0.1528
      2 C2          0.0021   -0.0041    0.0020 C.3       1 <0>        -0.1241
      3 C3         -1.4333   -0.5336    0.0129 C.3       1 <0>        -0.1201
      4 C4         -1.4126   -2.0635    0.0045 C.3       1 <0>        -0.1147
      5 C5         -2.8479   -2.5931    0.0153 C.3       1 <0>        -0.1412
      6 C6         -2.8272   -4.1229    0.0069 C.3       1 <0>         0.1452
      7 C7         -4.2353   -4.6399   -0.1268 C.ar      1 <0>        -0.0773
      8 C8         -4.7879   -4.8876   -1.3627 C.ar      1 <0>        -0.1682
      9 C9         -6.0928   -5.3597   -1.4559 C.ar      1 <0>         0.2941
     10 C10        -6.8422   -5.5824   -0.3065 C.ar      1 <0>        -0.2591
     11 C11        -6.2923   -5.3375    0.9360 C.ar      1 <0>        -0.0334
     12 C12        -4.9883   -4.8688    1.0293 C.ar      1 <0>        -0.1520
     13 C13        -4.3439   -4.6051    2.3369 C.ar      1 <0>        -0.0938
     14 C14        -2.9496   -4.4692    2.3692 C.ar      1 <0>         0.1504
     15 C15        -2.3168   -4.2161    3.5736 C.ar      1 <0>        -0.1761
     16 C16        -3.0590   -4.1022    4.7356 C.ar      1 <0>        -0.0757
     17 C17        -4.4342   -4.2395    4.7084 C.ar      1 <0>        -0.2298
     18 C18        -5.0856   -4.4912    3.5090 C.ar      1 <0>         0.1437
     19 O1         -6.4372   -4.6263    3.4794 O.3       1 <0>        -0.3003
     20 C19        -7.1295   -4.4964    4.7228 C.3       1 <0>         0.0232
     21 O2         -2.2399   -4.5943    1.2197 O.3       1 <0>        -0.3077
     22 N1         -6.6527   -5.6117   -2.7103 N.2       1 <0>        -1.0960
     23 S1         -8.2061   -6.1738   -2.8259 S.o2      1 <0>         2.5257
     24 O3         -8.1769   -7.4507   -2.2030 O.2       1 <0>        -1.0288
     25 O4         -9.0103   -5.1283   -2.2975 O.2       1 <0>        -1.0290
     26 C20        -8.5056   -6.3537   -4.6059 C.3       1 <0>        -0.6376
     27 H1          1.0039    1.9031    0.0027 H         1 <0>         0.0503
     28 H2         -0.5459    1.8868   -0.8726 H         1 <0>         0.0527
     29 H3         -0.5289    1.8773    0.9072 H         1 <0>         0.0522
     30 H4          0.5123   -0.3556   -0.8948 H         1 <0>         0.0599
     31 H5          0.5293   -0.3651    0.8851 H         1 <0>         0.0597
     32 H6         -1.9435   -0.1821    0.9097 H         1 <0>         0.0594
     33 H7         -1.9605   -0.1726   -0.8702 H         1 <0>         0.0608
     34 H8         -0.9024   -2.4150   -0.8923 H         1 <0>         0.0615
     35 H9         -0.8854   -2.4246    0.8875 H         1 <0>         0.0659
     36 H10        -3.3581   -2.2415    0.9121 H         1 <0>         0.0670
     37 H11        -3.3751   -2.2320   -0.8677 H         1 <0>         0.0803
     38 H12        -2.2356   -4.4711   -0.8397 H         1 <0>         0.1181
     39 H13        -4.2095   -4.7154   -2.2584 H         1 <0>         0.1153
     40 H14        -7.8557   -5.9470   -0.3855 H         1 <0>         0.1037
     41 H15        -6.8727   -5.5098    1.8303 H         1 <0>         0.1246
     42 H16        -1.2427   -4.1078    3.6065 H         1 <0>         0.1255
     43 H17        -2.5594   -3.9046    5.6724 H         1 <0>         0.1231
     44 H18        -5.0029   -4.1508    5.6222 H         1 <0>         0.1236
     45 H19        -8.1992   -4.6256    4.5582 H         1 <0>         0.0968
     46 H20        -6.7743   -5.2573    5.4177 H         1 <0>         0.0521
     47 H21        -6.9431   -3.5071    5.1408 H         1 <0>         0.0518
     48 H22        -7.7890   -7.0598   -5.0254 H         1 <0>         0.1152
     49 H23        -9.5179   -6.7236   -4.7685 H         1 <0>         0.1013
     50 H24        -8.3898   -5.3857   -5.0935 H         1 <0>         0.1151
@<TRIPOS>BOND
     1    1    2 1
     2    1   27 1
     3    1   28 1
     4    1   29 1
     5    2    3 1
     6    2   30 1
     7    2   31 1
     8    3    4 1
     9    3   32 1
    10    3   33 1
    11    4    5 1
    12    4   34 1
    13    4   35 1
    14    5    6 1
    15    5   36 1
    16    5   37 1
    17    6   21 1
    18    6    7 1
    19    6   38 1
    20    7   12 ar
    21    7    8 ar
    22    8    9 ar
    23    8   39 1
    24    9   10 ar
    25    9   22 1
    26   10   11 ar
    27   10   40 1
    28   11   12 ar
    29   11   41 1
    30   12   13 1
    31   13   18 ar
    32   13   14 ar
    33   14   15 ar
    34   14   21 1
    35   15   16 ar
    36   15   42 1
    37   16   17 ar
    38   16   43 1
    39   17   18 ar
    40   17   44 1
    41   18   19 1
    42   19   20 1
    43   20   45 1
    44   20   46 1
    45   20   47 1
    46   22   23 1
    47   23   24 2
    48   23   25 2
    49   23   26 1
    50   26   48 1
    51   26   49 1
    52   26   50 1
@<TRIPOS>MOLECULE
CHEMBL442744__1
   50    52     0     0     0
SMALL
USER_CHARGES

@<TRIPOS>ATOM
      1 C1         -0.0187    1.5258    0.0104 C.3       1 <0>        -0.1528
      2 C2          0.0021   -0.0041    0.0020 C.3       1 <0>        -0.1241
      3 C3         -1.4333   -0.5336    0.0129 C.3       1 <0>        -0.1201
      4 C4         -1.4126   -2.0635    0.0045 C.3       1 <0>        -0.1147
      5 C5         -2.8479   -2.5931    0.0153 C.3       1 <0>        -0.1412
      6 C6         -2.8272   -4.1229    0.0069 C.3       1 <0>         0.1452
      7 C7         -4.2326   -4.6415    0.1619 C.ar      1 <0>        -0.0773
      8 C8         -4.7614   -4.9025    1.4054 C.ar      1 <0>        -0.1682
      9 C9         -6.0644   -5.3757    1.5184 C.ar      1 <0>         0.2941
     10 C10        -6.8358   -5.5857    0.3812 C.ar      1 <0>        -0.2591
     11 C11        -6.3097   -5.3274   -0.8688 C.ar      1 <0>        -0.0334
     12 C12        -5.0075   -4.8580   -0.9820 C.ar      1 <0>        -0.1520
     13 C13        -4.3881   -4.5802   -2.2987 C.ar      1 <0>        -0.0938
     14 C14        -2.9947   -4.4438   -2.3562 C.ar      1 <0>         0.1504
     15 C15        -2.3850   -4.1777   -3.5696 C.ar      1 <0>        -0.1761
     16 C16        -3.1492   -4.0514   -4.7160 C.ar      1 <0>        -0.0757
     17 C17        -4.5238   -4.1883   -4.6638 C.ar      1 <0>        -0.2299
     18 C18        -5.1521   -4.4538   -3.4552 C.ar      1 <0>         0.1437
     19 O1         -6.5029   -4.5893   -3.4013 O.3       1 <0>        -0.3004
     20 C19        -7.2188   -4.4461   -4.6297 C.3       1 <0>         0.0232
     21 O2         -2.2632   -4.5812   -1.2219 O.3       1 <0>        -0.3078
     22 N1         -6.6001   -5.6416    2.7805 N.2       1 <0>        -1.0959
     23 S1         -8.1511   -6.2051    2.9197 S.o2      1 <0>         2.5254
     24 O3         -8.9652   -5.1538    2.4184 O.2       1 <0>        -1.0289
     25 O4         -8.1340   -7.4750    2.2822 O.2       1 <0>        -1.0288
     26 C20        -8.4163   -6.4047    4.7031 C.3       1 <0>        -0.6375
     27 H1          1.0039    1.9031    0.0027 H         1 <0>         0.0503
     28 H2         -0.5459    1.8868   -0.8726 H         1 <0>         0.0522
     29 H3         -0.5289    1.8773    0.9072 H         1 <0>         0.0527
     30 H4          0.5123   -0.3556   -0.8948 H         1 <0>         0.0597
     31 H5          0.5293   -0.3651    0.8851 H         1 <0>         0.0599
     32 H6         -1.9435   -0.1821    0.9097 H         1 <0>         0.0608
     33 H7         -1.9605   -0.1726   -0.8702 H         1 <0>         0.0594
     34 H8         -0.9024   -2.4150   -0.8923 H         1 <0>         0.0659
     35 H9         -0.8854   -2.4246    0.8875 H         1 <0>         0.0616
     36 H10        -3.3581   -2.2415    0.9121 H         1 <0>         0.0803
     37 H11        -3.3751   -2.2320   -0.8677 H         1 <0>         0.0670
     38 H12        -2.2195   -4.4801    0.8383 H         1 <0>         0.1181
     39 H13        -4.1658   -4.7405    2.2916 H         1 <0>         0.1153
     40 H14        -7.8476   -5.9515    0.4756 H         1 <0>         0.1037
     41 H15        -6.9072   -5.4898   -1.7537 H         1 <0>         0.1246
     42 H16        -1.3118   -4.0682   -3.6218 H         1 <0>         0.1254
     43 H17        -2.6676   -3.8437   -5.6600 H         1 <0>         0.1231
     44 H18        -5.1099   -4.0887   -5.5655 H         1 <0>         0.1236
     45 H19        -8.2852   -4.5773   -4.4461 H         1 <0>         0.0968
     46 H20        -7.0403   -3.4524   -5.0405 H         1 <0>         0.0518
     47 H21        -6.8770   -5.1995   -5.3394 H         1 <0>         0.0521
     48 H22        -8.2910   -5.4422    5.1990 H         1 <0>         0.1151
     49 H23        -9.4254   -6.7765    4.8810 H         1 <0>         0.1012
     50 H24        -7.6919   -7.1154    5.1008 H         1 <0>         0.1152
@<TRIPOS>BOND
     1    1    2 1
     2    1   27 1
     3    1   28 1
     4    1   29 1
     5    2    3 1
     6    2   30 1
     7    2   31 1
     8    3    4 1
     9    3   32 1
    10    3   33 1
    11    4    5 1
    12    4   34 1
    13    4   35 1
    14    5    6 1
    15    5   36 1
    16    5   37 1
    17    6   21 1
    18    6    7 1
    19    6   38 1
    20    7   12 ar
    21    7    8 ar
    22    8    9 ar
    23    8   39 1
    24    9   10 ar
    25    9   22 1
    26   10   11 ar
    27   10   40 1
    28   11   12 ar
    29   11   41 1
    30   12   13 1
    31   13   18 ar
    32   13   14 ar
    33   14   15 ar
    34   14   21 1
    35   15   16 ar
    36   15   42 1
    37   16   17 ar
    38   16   43 1
    39   17   18 ar
    40   17   44 1
    41   18   19 1
    42   19   20 1
    43   20   45 1
    44   20   46 1
    45   20   47 1
    46   22   23 1
    47   23   24 2
    48   23   25 2
    49   23   26 1
    50   26   48 1
    51   26   49 1
    52   26   50 1
@<TRIPOS>MOLECULE
CHEMBL231770
   68    73     0     0     0
SMALL
USER_CHARGES

@<TRIPOS>ATOM
      1 C1         -0.3058    1.3408   -0.6051 C.3       1 <0>        -0.1227
      2 C2         -0.2015   -0.1503   -0.3738 C.2       1 <0>        -0.0930
      3 C3         -0.3663   -0.9287   -1.4123 C.2       1 <0>        -0.1481
      4 C4         -0.2073   -2.4187   -1.3608 C.3       1 <0>         0.1440
      5 N1          0.6032   -2.7982   -0.1933 N.3       1 <0>        -0.6664
      6 C5          0.0609   -2.2213    1.0247 C.3       1 <0>         0.1195
      7 C6          0.1017   -0.6857    0.9718 C.3       1 <0>         0.0083
      8 C7         -0.6849   -0.2151    2.1461 C.2       1 <0>        -0.1009
      9 C8         -0.3341   -0.8016    3.3603 C.2       1 <0>        -0.0157
     10 C9          0.6609   -1.8810    3.3631 C.2       1 <0>        -0.1176
     11 C10         0.8571   -2.6067    2.2508 C.2       1 <0>        -0.1236
     12 C11        -0.9730   -0.2879    4.5814 C.ar      1 <0>        -0.1170
     13 C12        -1.7672    0.8706    4.4856 C.ar      1 <0>         0.1256
     14 C13        -2.3603    1.4035    5.6153 C.ar      1 <0>        -0.1281
     15 C14        -2.1897    0.7918    6.8435 C.ar      1 <0>        -0.0888
     16 C15        -1.4284   -0.3608    6.9492 C.ar      1 <0>         0.0587
     17 C16        -0.8219   -0.9082    5.8222 C.ar      1 <0>         0.1239
     18 O1         -0.1032   -2.0539    5.9549 O.3       1 <0>        -0.3201
     19 C17        -0.8297   -3.2838    5.9149 C.3       1 <0>         0.0370
     20 O2         -1.2712   -0.9641    8.1593 O.3       1 <0>        -0.4810
     21 O3         -1.9663    1.4492    3.2714 O.3       1 <0>        -0.2261
     22 C18        -1.7724    0.6580    2.1796 C.2       1 <0>         0.0979
     23 C19        -2.7170    0.6822    1.2068 C.2       1 <0>        -0.1186
     24 C20        -3.7353    1.7403    1.1981 C.ar      1 <0>        -0.0466
     25 C21        -3.6259    2.8287    2.0735 C.ar      1 <0>        -0.1031
     26 C22        -4.5833    3.8211    2.0644 C.ar      1 <0>        -0.1190
     27 C23        -5.6544    3.7496    1.1935 C.ar      1 <0>        -0.1079
     28 C24        -5.7763    2.6719    0.3162 C.ar      1 <0>        -0.0483
     29 C25        -4.8146    1.6685    0.3122 C.ar      1 <0>        -0.0975
     30 C26        -6.9289    2.5998   -0.6160 C.ar      1 <0>        -0.0436
     31 C27        -7.0555    1.5213   -1.4890 C.ar      1 <0>        -0.1124
     32 C28        -8.1297    1.4590   -2.3535 C.ar      1 <0>        -0.1170
     33 C29        -9.0793    2.4647   -2.3542 C.ar      1 <0>        -0.1200
     34 C30        -8.9582    3.5378   -1.4899 C.ar      1 <0>        -0.1168
     35 C31        -7.8912    3.6073   -0.6172 C.ar      1 <0>        -0.1120
     36 C32         0.5141   -2.8805   -2.6315 C.3       1 <0>        -0.1351
     37 C33        -1.5778   -3.0855   -1.2989 C.3       1 <0>        -0.1752
     38 H1          0.6740    1.7365   -0.8722 H         1 <0>         0.0673
     39 H2         -1.0090    1.5345   -1.4151 H         1 <0>         0.0666
     40 H3         -0.6578    1.8260    0.3053 H         1 <0>         0.0661
     41 H4         -0.6302   -0.4738   -2.3520 H         1 <0>         0.1151
     42 H5          0.6944   -3.8007   -0.1254 H         1 <0>         0.3502
     43 H6         -0.9647   -2.5399    1.1852 H         1 <0>         0.0518
     44 H7          1.1606   -0.4115    1.1848 H         1 <0>         0.0961
     45 H8          1.2565   -2.0854    4.2400 H         1 <0>         0.1399
     46 H9          1.5477   -3.4282    2.2232 H         1 <0>         0.1346
     47 H10        -2.9580    2.3003    5.5411 H         1 <0>         0.1463
     48 H11        -2.6521    1.2144    7.7226 H         1 <0>         0.1471
     49 H12        -1.2760   -3.4102    4.9285 H         1 <0>         0.0481
     50 H13        -0.1514   -4.1131    6.1158 H         1 <0>         0.1001
     51 H14        -1.6157   -3.2661    6.6698 H         1 <0>         0.0444
     52 H15        -1.9458   -1.6277    8.3585 H         1 <0>         0.3852
     53 H16        -2.7203   -0.0767    0.4384 H         1 <0>         0.1410
     54 H17        -2.7914    2.8902    2.7563 H         1 <0>         0.1476
     55 H18        -4.4960    4.6582    2.7412 H         1 <0>         0.1251
     56 H19        -6.4000    4.5309    1.1925 H         1 <0>         0.1240
     57 H20        -4.9029    0.8349   -0.3688 H         1 <0>         0.1248
     58 H21        -6.3144    0.7357   -1.4895 H         1 <0>         0.1239
     59 H22        -8.2286    0.6237   -3.0309 H         1 <0>         0.1240
     60 H23        -9.9182    2.4120   -3.0323 H         1 <0>         0.1229
     61 H24        -9.7024    4.3205   -1.4949 H         1 <0>         0.1244
     62 H25        -7.8002    4.4432    0.0605 H         1 <0>         0.1252
     63 H26         1.4936   -2.4054   -2.6862 H         1 <0>         0.0658
     64 H27         0.6364   -3.9633   -2.6068 H         1 <0>         0.0568
     65 H28        -0.0745   -2.6011   -3.5053 H         1 <0>         0.0621
     66 H29        -2.1533   -2.8159   -2.1845 H         1 <0>         0.0673
     67 H30        -1.4539   -4.1678   -1.2617 H         1 <0>         0.0591
     68 H31        -2.1055   -2.7493   -0.4064 H         1 <0>         0.0547
@<TRIPOS>BOND
     1    1    2 1
     2    1   38 1
     3    1   39 1
     4    1   40 1
     5    2    7 1
     6    2    3 2
     7    3    4 1
     8    3   41 1
     9    4    5 1
    10    4   36 1
    11    4   37 1
    12    5    6 1
    13    5   42 1
    14    6   11 1
    15    6    7 1
    16    6   43 1
    17    7    8 1
    18    7   44 1
    19    8   22 1
    20    8    9 2
    21    9   10 1
    22    9   12 1
    23   10   11 2
    24   10   45 1
    25   11   46 1
    26   12   17 ar
    27   12   13 ar
    28   13   14 ar
    29   13   21 1
    30   14   15 ar
    31   14   47 1
    32   15   16 ar
    33   15   48 1
    34   16   17 ar
    35   16   20 1
    36   17   18 1
    37   18   19 1
    38   19   49 1
    39   19   50 1
    40   19   51 1
    41   20   52 1
    42   21   22 1
    43   22   23 2
    44   23   24 1
    45   23   53 1
    46   24   29 ar
    47   24   25 ar
    48   25   26 ar
    49   25   54 1
    50   26   27 ar
    51   26   55 1
    52   27   28 ar
    53   27   56 1
    54   28   29 ar
    55   28   30 1
    56   29   57 1
    57   30   35 ar
    58   30   31 ar
    59   31   32 ar
    60   31   58 1
    61   32   33 ar
    62   32   59 1
    63   33   34 ar
    64   33   60 1
    65   34   35 ar
    66   34   61 1
    67   35   62 1
    68   36   63 1
    69   36   64 1
    70   36   65 1
    71   37   66 1
    72   37   67 1
    73   37   68 1
@<TRIPOS>MOLECULE
CHEMBL231770__1
   69    74     0     0     0
SMALL
USER_CHARGES

@<TRIPOS>ATOM
      1 C1         -0.3421    1.3206   -0.6157 C.3       1 <0>        -0.1335
      2 C2         -0.2321   -0.1699   -0.3842 C.2       1 <0>        -0.0697
      3 C3         -0.4020   -0.9512   -1.4204 C.2       1 <0>        -0.1910
      4 C4         -0.2362   -2.4395   -1.3675 C.3       1 <0>         0.1012
      5 N1          0.5921   -2.8184   -0.2137 N.4       1 <0>        -0.4883
      6 C5          0.0395   -2.2446    1.0019 C.3       1 <0>         0.0544
      7 C6          0.0829   -0.7091    0.9582 C.3       1 <0>        -0.0105
      8 C7         -0.6910   -0.2374    2.1401 C.2       1 <0>        -0.0949
      9 C8         -0.3438   -0.8366    3.3496 C.2       1 <0>        -0.0155
     10 C9          0.6417   -1.9245    3.3443 C.2       1 <0>        -0.0362
     11 C10         0.8325   -2.6418    2.2274 C.2       1 <0>        -0.2119
     12 C11        -0.9763   -0.3284    4.5769 C.ar      1 <0>        -0.1338
     13 C12        -1.7456    0.8480    4.4966 C.ar      1 <0>         0.1320
     14 C13        -2.3304    1.3769    5.6323 C.ar      1 <0>        -0.1250
     15 C14        -2.1757    0.7433    6.8519 C.ar      1 <0>        -0.0758
     16 C15        -1.4398   -0.4270    6.9421 C.ar      1 <0>         0.0653
     17 C16        -0.8424   -0.9704    5.8084 C.ar      1 <0>         0.1269
     18 O1         -0.1517   -2.1349    5.9244 O.3       1 <0>        -0.3237
     19 C17        -0.9063   -3.3465    5.8558 C.3       1 <0>         0.0341
     20 O2         -1.2987   -1.0509    8.1435 O.3       1 <0>        -0.4783
     21 O3         -1.9280    1.4451    3.2881 O.3       1 <0>        -0.2201
     22 C18        -1.7637    0.6534    2.1907 C.2       1 <0>         0.0728
     23 C19        -2.7236    0.6956    1.2341 C.2       1 <0>        -0.0899
     24 C20        -3.7228    1.7718    1.2435 C.ar      1 <0>        -0.0665
     25 C21        -3.5801    2.8562    2.1189 C.ar      1 <0>        -0.0968
     26 C22        -4.5195    3.8657    2.1267 C.ar      1 <0>        -0.1185
     27 C23        -5.6055    3.8150    1.2728 C.ar      1 <0>        -0.0966
     28 C24        -5.7606    2.7415    0.3958 C.ar      1 <0>        -0.0433
     29 C25        -4.8172    1.7210    0.3748 C.ar      1 <0>        -0.0931
     30 C26        -6.9289    2.6918   -0.5180 C.ar      1 <0>        -0.0516
     31 C27        -7.0888    1.6175   -1.3907 C.ar      1 <0>        -0.1125
     32 C28        -8.1775    1.5761   -2.2381 C.ar      1 <0>        -0.1175
     33 C29        -9.1089    2.5986   -2.2220 C.ar      1 <0>        -0.1145
     34 C30        -8.9548    3.6677   -1.3579 C.ar      1 <0>        -0.1141
     35 C31        -7.8730    3.7164   -0.5022 C.ar      1 <0>        -0.1091
     36 C32         0.4707   -2.8995   -2.6478 C.3       1 <0>        -0.1738
     37 C33        -1.6020   -3.1136   -1.2912 C.3       1 <0>        -0.1710
     38 H1          0.6347    1.7186   -0.8906 H         1 <0>         0.0838
     39 H2         -1.0520    1.5119   -1.4204 H         1 <0>         0.0828
     40 H3         -0.6882    1.8054    0.2971 H         1 <0>         0.0810
     41 H4         -0.6740   -0.4992   -2.3597 H         1 <0>         0.1545
     42 H5          0.6205   -3.8271   -0.1386 H         1 <0>         0.4323
     43 H6         -0.9859   -2.5642    1.1575 H         1 <0>         0.1483
     44 H7          1.1446   -0.4377    1.1608 H         1 <0>         0.1190
     45 H8          1.2324   -2.1424    4.2215 H         1 <0>         0.1603
     46 H9          1.5192   -3.4668    2.1932 H         1 <0>         0.1560
     47 H10        -2.9098    2.2870    5.5709 H         1 <0>         0.1515
     48 H11        -2.6317    1.1624    7.7359 H         1 <0>         0.1534
     49 H12        -0.2487   -4.1953    6.0433 H         1 <0>         0.1037
     50 H13        -1.6959   -3.3257    6.6070 H         1 <0>         0.0506
     51 H14        -1.3501   -3.4425    4.8649 H         1 <0>         0.0452
     52 H15        -1.9880   -1.7025    8.3317 H         1 <0>         0.3901
     53 H16        -2.7534   -0.0623    0.4652 H         1 <0>         0.1388
     54 H17        -2.7338    2.9015    2.7884 H         1 <0>         0.1480
     55 H18        -4.4065    4.6997    2.8035 H         1 <0>         0.1292
     56 H19        -6.3369    4.6096    1.2851 H         1 <0>         0.1286
     57 H20        -4.9313    0.8905   -0.3062 H         1 <0>         0.1251
     58 H21        -6.3620    0.8188   -1.4043 H         1 <0>         0.1211
     59 H22        -8.3022    0.7441   -2.9152 H         1 <0>         0.1248
     60 H23        -9.9593    2.5623   -2.8867 H         1 <0>         0.1257
     61 H24        -9.6848    4.4636   -1.3497 H         1 <0>         0.1274
     62 H25        -7.7562    4.5492    0.1754 H         1 <0>         0.1263
     63 H26         1.4471   -2.4197   -2.7161 H         1 <0>         0.0839
     64 H27         0.5985   -3.9817   -2.6235 H         1 <0>         0.0851
     65 H28        -0.1309   -2.6240   -3.5140 H         1 <0>         0.1094
     66 H29        -2.1875   -2.8489   -2.1717 H         1 <0>         0.1104
     67 H30        -1.4717   -4.1951   -1.2531 H         1 <0>         0.0857
     68 H31        -2.1229   -2.7785   -0.3943 H         1 <0>         0.0783
     69 H32         1.5358   -2.4794   -0.3567 H         1 <0>         0.4302
@<TRIPOS>BOND
     1    1    2 1
     2    1   38 1
     3    1   39 1
     4    1   40 1
     5    2    7 1
     6    2    3 2
     7    3    4 1
     8    3   41 1
     9    4    5 1
    10    4   36 1
    11    4   37 1
    12    5    6 1
    13    5   42 1
    14    5   69 1
    15    6   11 1
    16    6    7 1
    17    6   43 1
    18    7    8 1
    19    7   44 1
    20    8   22 1
    21    8    9 2
    22    9   10 1
    23    9   12 1
    24   10   11 2
    25   10   45 1
    26   11   46 1
    27   12   17 ar
    28   12   13 ar
    29   13   14 ar
    30   13   21 1
    31   14   15 ar
    32   14   47 1
    33   15   16 ar
    34   15   48 1
    35   16   17 ar
    36   16   20 1
    37   17   18 1
    38   18   19 1
    39   19   49 1
    40   19   50 1
    41   19   51 1
    42   20   52 1
    43   21   22 1
    44   22   23 2
    45   23   24 1
    46   23   53 1
    47   24   29 ar
    48   24   25 ar
    49   25   26 ar
    50   25   54 1
    51   26   27 ar
    52   26   55 1
    53   27   28 ar
    54   27   56 1
    55   28   29 ar
    56   28   30 1
    57   29   57 1
    58   30   35 ar
    59   30   31 ar
    60   31   32 ar
    61   31   58 1
    62   32   33 ar
    63   32   59 1
    64   33   34 ar
    65   33   60 1
    66   34   35 ar
    67   34   61 1
    68   35   62 1
    69   36   63 1
    70   36   64 1
    71   36   65 1
    72   37   66 1
    73   37   67 1
    74   37   68 1
@<TRIPOS>MOLECULE
CHEMBL231770__2
   68    73     0     0     0
SMALL
USER_CHARGES

@<TRIPOS>ATOM
      1 C1          1.3197    2.4872   -1.3729 C.3       1 <0>        -0.1281
      2 C2          1.4681    1.0036   -1.1536 C.2       1 <0>        -0.1065
      3 C3          1.5640    0.2311   -2.1928 C.2       1 <0>        -0.1778
      4 C4          1.7206   -1.2592   -2.0927 C.3       1 <0>         0.1391
      5 N1          1.3026   -1.7227   -0.7637 N.3       1 <0>        -0.6586
      6 C5          1.9856   -0.9543    0.2875 C.3       1 <0>         0.1176
      7 C6          1.5041    0.4888    0.2563 C.3       1 <0>        -0.0285
      8 C7          2.3866    1.3669    1.0995 C.2       1 <0>        -0.1133
      9 C8          3.7224    1.0933    1.2014 C.2       1 <0>         0.0072
     10 C9          4.2854   -0.0795    0.5229 C.2       1 <0>        -0.1508
     11 C10         3.4722   -1.0342    0.0861 C.2       1 <0>        -0.1120
     12 C11         4.5646    1.9989    2.0041 C.ar      1 <0>        -0.1243
     13 C12         3.9567    3.0827    2.6564 C.ar      1 <0>         0.1303
     14 C13         4.7350    3.9447    3.4133 C.ar      1 <0>        -0.1278
     15 C14         6.0973    3.7368    3.5254 C.ar      1 <0>        -0.0865
     16 C15         6.7030    2.6665    2.8849 C.ar      1 <0>         0.0615
     17 C16         5.9399    1.7909    2.1218 C.ar      1 <0>         0.1254
     18 O1          6.5288    0.7389    1.4942 O.3       1 <0>        -0.3178
     19 C17         6.7563   -0.4370    2.2738 C.3       1 <0>         0.0306
     20 O2          8.0448    2.4736    3.0035 O.3       1 <0>        -0.4808
     21 O3          2.6229    3.2830    2.5507 O.3       1 <0>        -0.2121
     22 C18         1.8550    2.4759    1.7897 C.2       1 <0>         0.1226
     23 C19         0.5241    2.7408    1.6843 C.2       1 <0>        -0.1748
     24 C20        -0.0287    3.9691    2.2694 C.ar      1 <0>        -0.0346
     25 C21         0.8216    5.0264    2.6182 C.ar      1 <0>        -0.1108
     26 C22         0.3009    6.1788    3.1680 C.ar      1 <0>        -0.1156
     27 C23        -1.0602    6.2988    3.3779 C.ar      1 <0>        -0.1146
     28 C24        -1.9190    5.2542    3.0356 C.ar      1 <0>        -0.0456
     29 C25        -1.4064    4.0901    2.4754 C.ar      1 <0>        -0.1046
     30 C26        -3.3793    5.3881    3.2640 C.ar      1 <0>        -0.0434
     31 C27        -4.2381    4.3437    2.9281 C.ar      1 <0>        -0.1124
     32 C28        -5.5953    4.4733    3.1432 C.ar      1 <0>        -0.1172
     33 C29        -6.1031    5.6374    3.6911 C.ar      1 <0>        -0.1203
     34 C30        -5.2551    6.6775    4.0260 C.ar      1 <0>        -0.1172
     35 C31        -3.8956    6.5564    3.8206 C.ar      1 <0>        -0.1121
     36 C32         3.1867   -1.6318   -2.3220 C.3       1 <0>        -0.1479
     37 C33         0.8558   -1.9329   -3.1600 C.3       1 <0>        -0.1392
     38 H1          2.3062    2.9489   -1.4139 H         1 <0>         0.0637
     39 H2          0.7959    2.6651   -2.3121 H         1 <0>         0.0625
     40 H3          0.7495    2.9207   -0.5512 H         1 <0>         0.0743
     41 H4          1.5293    0.6808   -3.1741 H         1 <0>         0.1120
     42 H5          0.3006   -1.6663   -0.6596 H         1 <0>         0.3473
     43 H6          1.7358   -1.3826    1.2583 H         1 <0>         0.0995
     44 H7          0.4961    0.5273    0.6692 H         1 <0>         0.0958
     45 H8          5.3532   -0.1656    0.3855 H         1 <0>         0.1542
     46 H9          3.8927   -1.8834   -0.4321 H         1 <0>         0.1423
     47 H10         4.2755    4.7822    3.9171 H         1 <0>         0.1476
     48 H11         6.6951    4.4143    4.1170 H         1 <0>         0.1486
     49 H12         5.8048   -0.8145    2.6481 H         1 <0>         0.0529
     50 H13         7.2305   -1.1978    1.6538 H         1 <0>         0.1021
     51 H14         7.4072   -0.1955    3.1141 H         1 <0>         0.0474
     52 H15         8.2971    1.9143    3.7509 H         1 <0>         0.3866
     53 H16        -0.1254    2.0477    1.1703 H         1 <0>         0.1472
     54 H17         1.8858    4.9387    2.4566 H         1 <0>         0.1383
     55 H18         0.9597    6.9915    3.4362 H         1 <0>         0.1233
     56 H19        -1.4602    7.2046    3.8090 H         1 <0>         0.1230
     57 H20        -2.0686    3.2810    2.2045 H         1 <0>         0.1244
     58 H21        -3.8426    3.4345    2.4999 H         1 <0>         0.1243
     59 H22        -6.2619    3.6645    2.8829 H         1 <0>         0.1240
     60 H23        -7.1658    5.7347    3.8577 H         1 <0>         0.1227
     61 H24        -5.6570    7.5844    4.4532 H         1 <0>         0.1242
     62 H25        -3.2338    7.3672    4.0869 H         1 <0>         0.1251
     63 H26         3.8287   -0.8869   -1.8518 H         1 <0>         0.0704
     64 H27         3.3854   -2.6105   -1.8852 H         1 <0>         0.0719
     65 H28         3.3904   -1.6635   -3.3923 H         1 <0>         0.0586
     66 H29         1.1724   -1.5990   -4.1481 H         1 <0>         0.0638
     67 H30         0.9682   -3.0148   -3.0889 H         1 <0>         0.0675
     68 H31        -0.1891   -1.6651   -3.0034 H         1 <0>         0.0553
@<TRIPOS>BOND
     1    1    2 1
     2    1   38 1
     3    1   39 1
     4    1   40 1
     5    2    7 1
     6    2    3 2
     7    3    4 1
     8    3   41 1
     9    4    5 1
    10    4   36 1
    11    4   37 1
    12    5    6 1
    13    5   42 1
    14    6   11 1
    15    6    7 1
    16    6   43 1
    17    7    8 1
    18    7   44 1
    19    8   22 1
    20    8    9 2
    21    9   10 1
    22    9   12 1
    23   10   11 2
    24   10   45 1
    25   11   46 1
    26   12   17 ar
    27   12   13 ar
    28   13   14 ar
    29   13   21 1
    30   14   15 ar
    31   14   47 1
    32   15   16 ar
    33   15   48 1
    34   16   17 ar
    35   16   20 1
    36   17   18 1
    37   18   19 1
    38   19   49 1
    39   19   50 1
    40   19   51 1
    41   20   52 1
    42   21   22 1
    43   22   23 2
    44   23   24 1
    45   23   53 1
    46   24   29 ar
    47   24   25 ar
    48   25   26 ar
    49   25   54 1
    50   26   27 ar
    51   26   55 1
    52   27   28 ar
    53   27   56 1
    54   28   29 ar
    55   28   30 1
    56   29   57 1
    57   30   35 ar
    58   30   31 ar
    59   31   32 ar
    60   31   58 1
    61   32   33 ar
    62   32   59 1
    63   33   34 ar
    64   33   60 1
    65   34   35 ar
    66   34   61 1
    67   35   62 1
    68   36   63 1
    69   36   64 1
    70   36   65 1
    71   37   66 1
    72   37   67 1
    73   37   68 1
@<TRIPOS>MOLECULE
CHEMBL231770__3
   69    74     0     0     0
SMALL
USER_CHARGES

@<TRIPOS>ATOM
      1 C1          1.1705    2.8958   -1.0414 C.3       1 <0>        -0.1377
      2 C2          1.1624    1.3913   -0.9545 C.2       1 <0>        -0.0780
      3 C3          1.1233    0.7045   -2.0565 C.2       1 <0>        -0.1814
      4 C4          1.1160   -0.7969   -2.0818 C.3       1 <0>         0.1027
      5 N1          0.6839   -1.3248   -0.7826 N.4       1 <0>        -0.4964
      6 C5          1.5125   -0.7365    0.2788 C.3       1 <0>         0.0775
      7 C6          1.2060    0.7487    0.4026 C.3       1 <0>        -0.0218
      8 C7          2.2320    1.4374    1.2599 C.2       1 <0>        -0.1004
      9 C8          3.5289    1.0043    1.2503 C.2       1 <0>        -0.0024
     10 C9          3.9097   -0.1560    0.4368 C.2       1 <0>        -0.0636
     11 C10         2.9654   -0.9661   -0.0265 C.2       1 <0>        -0.2152
     12 C11         4.5159    1.7279    2.0723 C.ar      1 <0>        -0.1374
     13 C12         4.0789    2.8087    2.8536 C.ar      1 <0>         0.1373
     14 C13         4.9950    3.5012    3.6301 C.ar      1 <0>        -0.1239
     15 C14         6.3263    3.1284    3.6361 C.ar      1 <0>        -0.0747
     16 C15         6.7633    2.0595    2.8684 C.ar      1 <0>         0.0690
     17 C16         5.8605    1.3529    2.0828 C.ar      1 <0>         0.1252
     18 O1          6.2839    0.3034    1.3300 O.3       1 <0>        -0.3214
     19 C17         6.4122   -0.9579    1.9893 C.3       1 <0>         0.0261
     20 O2          8.0762    1.7024    2.8842 O.3       1 <0>        -0.4785
     21 O3          2.7753    3.1704    2.8518 O.3       1 <0>        -0.2061
     22 C18         1.8754    2.5299    2.0769 C.2       1 <0>         0.1029
     23 C19         0.5814    2.9521    2.0841 C.2       1 <0>        -0.1465
     24 C20         0.2184    4.1950    2.7769 C.ar      1 <0>        -0.0537
     25 C21         1.2089    5.1253    3.1177 C.ar      1 <0>        -0.1037
     26 C22         0.8664    6.2916    3.7686 C.ar      1 <0>        -0.1148
     27 C23        -0.4534    6.5507    4.0882 C.ar      1 <0>        -0.1033
     28 C24        -1.4504    5.6338    3.7552 C.ar      1 <0>        -0.0409
     29 C25        -1.1180    4.4573    3.0938 C.ar      1 <0>        -0.0999
     30 C26        -2.8655    5.9167    4.1016 C.ar      1 <0>        -0.0510
     31 C27        -3.8621    4.9994    3.7749 C.ar      1 <0>        -0.1124
     32 C28        -5.1764    5.2674    4.0999 C.ar      1 <0>        -0.1177
     33 C29        -5.5051    6.4440    4.7486 C.ar      1 <0>        -0.1151
     34 C30        -4.5197    7.3583    5.0749 C.ar      1 <0>        -0.1146
     35 C31        -3.2015    7.0978    4.7598 C.ar      1 <0>        -0.1093
     36 C32         2.5254   -1.3052   -2.3918 C.3       1 <0>        -0.1837
     37 C33         0.1557   -1.2807   -3.1702 C.3       1 <0>        -0.1724
     38 H1          2.1994    3.2509   -1.0990 H         1 <0>         0.0811
     39 H2          0.6269    3.2112   -1.9320 H         1 <0>         0.0791
     40 H3          0.6910    3.3135   -0.1561 H         1 <0>         0.0854
     41 H4          1.0950    1.2368   -2.9958 H         1 <0>         0.1532
     42 H5         -0.2838   -1.0852   -0.6265 H         1 <0>         0.4309
     43 H6          1.2695   -1.2194    1.2253 H         1 <0>         0.1520
     44 H7          0.2321    0.8649    0.8782 H         1 <0>         0.1259
     45 H8          4.9503   -0.3498    0.2223 H         1 <0>         0.1736
     46 H9          3.2524   -1.8050   -0.6431 H         1 <0>         0.1627
     47 H10         4.6675    4.3356    4.2326 H         1 <0>         0.1530
     48 H11         7.0324    3.6748    4.2438 H         1 <0>         0.1549
     49 H12         6.7571   -1.7070    1.2765 H         1 <0>         0.1053
     50 H13         7.1328   -0.8712    2.8025 H         1 <0>         0.0545
     51 H14         5.4445   -1.2576    2.3917 H         1 <0>         0.0501
     52 H15         8.2984    1.0506    3.5630 H         1 <0>         0.3915
     53 H16        -0.1784    2.3730    1.5803 H         1 <0>         0.1447
     54 H17         2.2417    4.9285    2.8707 H         1 <0>         0.1371
     55 H18         1.6329    7.0060    4.0304 H         1 <0>         0.1274
     56 H19        -0.7135    7.4666    4.5981 H         1 <0>         0.1275
     57 H20        -1.8876    3.7471    2.8300 H         1 <0>         0.1247
     58 H21        -3.6066    4.0806    3.2681 H         1 <0>         0.1216
     59 H22        -5.9498    4.5572    3.8468 H         1 <0>         0.1247
     60 H23        -6.5348    6.6497    5.0010 H         1 <0>         0.1254
     61 H24        -4.7819    8.2756    5.5811 H         1 <0>         0.1271
     62 H25        -2.4323    7.8102    5.0192 H         1 <0>         0.1261
     63 H26         3.2590   -0.6594   -1.9092 H         1 <0>         0.1034
     64 H27         2.6352   -2.3230   -2.0173 H         1 <0>         0.0835
     65 H28         2.6863   -1.2955   -3.4698 H         1 <0>         0.1019
     66 H29         0.4829   -0.9014   -4.1382 H         1 <0>         0.1081
     67 H30         0.1488   -2.3705   -3.1904 H         1 <0>         0.0844
     68 H31        -0.8488   -0.9149   -2.9572 H         1 <0>         0.0830
     69 H32         0.7887   -2.3283   -0.7748 H         1 <0>         0.4334
@<TRIPOS>BOND
     1    1    2 1
     2    1   38 1
     3    1   39 1
     4    1   40 1
     5    2    7 1
     6    2    3 2
     7    3    4 1
     8    3   41 1
     9    4    5 1
    10    4   36 1
    11    4   37 1
    12    5    6 1
    13    5   42 1
    14    5   69 1
    15    6   11 1
    16    6    7 1
    17    6   43 1
    18    7    8 1
    19    7   44 1
    20    8   22 1
    21    8    9 2
    22    9   10 1
    23    9   12 1
    24   10   11 2
    25   10   45 1
    26   11   46 1
    27   12   17 ar
    28   12   13 ar
    29   13   14 ar
    30   13   21 1
    31   14   15 ar
    32   14   47 1
    33   15   16 ar
    34   15   48 1
    35   16   17 ar
    36   16   20 1
    37   17   18 1
    38   18   19 1
    39   19   49 1
    40   19   50 1
    41   19   51 1
    42   20   52 1
    43   21   22 1
    44   22   23 2
    45   23   24 1
    46   23   53 1
    47   24   29 ar
    48   24   25 ar
    49   25   26 ar
    50   25   54 1
    51   26   27 ar
    52   26   55 1
    53   27   28 ar
    54   27   56 1
    55   28   29 ar
    56   28   30 1
    57   29   57 1
    58   30   35 ar
    59   30   31 ar
    60   31   32 ar
    61   31   58 1
    62   32   33 ar
    63   32   59 1
    64   33   34 ar
    65   33   60 1
    66   34   35 ar
    67   34   61 1
    68   35   62 1
    69   36   63 1
    70   36   64 1
    71   36   65 1
    72   37   66 1
    73   37   67 1
    74   37   68 1
@<TRIPOS>MOLECULE
CHEMBL231770__4
   68    73     0     0     0
SMALL
USER_CHARGES

@<TRIPOS>ATOM
      1 C1         -0.9619    1.6082    0.2841 C.3       1 <0>        -0.1259
      2 C2         -0.5519    0.1774    0.0475 C.2       1 <0>        -0.1015
      3 C3         -0.7382   -0.3326   -1.1319 C.2       1 <0>        -0.1425
      4 C4         -0.3740   -1.7478   -1.4782 C.3       1 <0>         0.1417
      5 N1          0.5854   -2.2758   -0.5002 N.3       1 <0>        -0.6640
      6 C5          0.0853   -2.0803    0.8686 C.3       1 <0>         0.1177
      7 C6          0.0583   -0.5895    1.1849 C.3       1 <0>         0.0131
      8 C7         -0.7125   -0.3293    2.4495 C.2       1 <0>        -0.1078
      9 C8         -1.7757   -1.1250    2.7750 C.2       1 <0>        -0.0002
     10 C9         -2.1375   -2.2560    1.9132 C.2       1 <0>        -0.1389
     11 C10        -1.2779   -2.6977    1.0008 C.2       1 <0>        -0.1623
     12 C11        -2.5333   -0.8160    4.0014 C.ar      1 <0>        -0.1248
     13 C12        -2.1128    0.2585    4.8002 C.ar      1 <0>         0.1257
     14 C13        -2.8159    0.5636    5.9554 C.ar      1 <0>        -0.1271
     15 C14        -3.9196   -0.1861    6.3179 C.ar      1 <0>        -0.0887
     16 C15        -4.3379   -1.2508    5.5341 C.ar      1 <0>         0.0672
     17 C16        -3.6469   -1.5719    4.3718 C.ar      1 <0>         0.1228
     18 O1         -4.0528   -2.6151    3.6008 O.3       1 <0>        -0.3236
     19 C17        -3.4939   -3.8965    3.8967 C.3       1 <0>         0.0326
     20 O2         -5.4250   -1.9812    5.9031 O.3       1 <0>        -0.4866
     21 O3         -1.0297    0.9887    4.4482 O.3       1 <0>        -0.2094
     22 C18        -0.3547    0.7297    3.3091 C.2       1 <0>         0.1140
     23 C19         0.7061    1.5161    2.9790 C.2       1 <0>        -0.1648
     24 C20         1.1708    2.5516    3.9110 C.ar      1 <0>        -0.0368
     25 C21         0.6434    2.6189    5.2072 C.ar      1 <0>        -0.1171
     26 C22         1.0805    3.5921    6.0809 C.ar      1 <0>        -0.1165
     27 C23         2.0398    4.5054    5.6851 C.ar      1 <0>        -0.1145
     28 C24         2.5738    4.4505    4.3977 C.ar      1 <0>        -0.0462
     29 C25         2.1453    3.4705    3.5101 C.ar      1 <0>        -0.1031
     30 C26         3.6028    5.4342    3.9779 C.ar      1 <0>        -0.0432
     31 C27         4.1333    5.3847    2.6905 C.ar      1 <0>        -0.1121
     32 C28         5.0896    6.3023    2.3052 C.ar      1 <0>        -0.1171
     33 C29         5.5215    7.2697    3.1945 C.ar      1 <0>        -0.1205
     34 C30         4.9985    7.3231    4.4739 C.ar      1 <0>        -0.1174
     35 C31         4.0376    6.4141    4.8679 C.ar      1 <0>        -0.1123
     36 C32        -1.6357   -2.6132   -1.4691 C.3       1 <0>        -0.1864
     37 C33         0.2524   -1.7836   -2.8736 C.3       1 <0>        -0.1347
     38 H1         -0.1263    2.2686    0.0526 H         1 <0>         0.0696
     39 H2         -1.8082    1.8545   -0.3571 H         1 <0>         0.0619
     40 H3         -1.2477    1.7363    1.3282 H         1 <0>         0.0660
     41 H4         -1.1755    0.2893   -1.8990 H         1 <0>         0.1136
     42 H5          0.7836   -3.2492   -0.6772 H         1 <0>         0.3489
     43 H6          0.7649   -2.5684    1.5672 H         1 <0>         0.0970
     44 H7          1.0801   -0.2407    1.3344 H         1 <0>         0.1037
     45 H8         -3.1035   -2.7281    2.0151 H         1 <0>         0.1504
     46 H9         -1.5562   -3.5139    0.3507 H         1 <0>         0.1362
     47 H10        -2.5001    1.3900    6.5748 H         1 <0>         0.1474
     48 H11        -4.4605    0.0595    7.2198 H         1 <0>         0.1486
     49 H12        -3.7440   -4.1743    4.9206 H         1 <0>         0.0549
     50 H13        -3.9010   -4.6380    3.2093 H         1 <0>         0.0990
     51 H14        -2.4103   -3.8546    3.7860 H         1 <0>         0.0516
     52 H15        -6.2611   -1.6483    5.5492 H         1 <0>         0.3938
     53 H16         1.2061    1.3787    2.0316 H         1 <0>         0.1495
     54 H17        -0.1063    1.9082    5.5222 H         1 <0>         0.1477
     55 H18         0.6711    3.6412    7.0791 H         1 <0>         0.1231
     56 H19         2.3768    5.2646    6.3754 H         1 <0>         0.1228
     57 H20         2.5599    3.4218    2.5140 H         1 <0>         0.1253
     58 H21         3.7970    4.6296    1.9955 H         1 <0>         0.1248
     59 H22         5.5018    6.2647    1.3077 H         1 <0>         0.1241
     60 H23         6.2700    7.9858    2.8889 H         1 <0>         0.1225
     61 H24         5.3395    8.0803    5.1644 H         1 <0>         0.1239
     62 H25         3.6264    6.4596    5.8655 H         1 <0>         0.1249
     63 H26        -2.1616   -2.4987   -2.4170 H         1 <0>         0.0613
     64 H27        -1.3586   -3.6583   -1.3313 H         1 <0>         0.0594
     65 H28        -2.2859   -2.2990   -0.6527 H         1 <0>         0.0754
     66 H29         1.1487   -1.1634   -2.8855 H         1 <0>         0.0652
     67 H30         0.5175   -2.8101   -3.1267 H         1 <0>         0.0569
     68 H31        -0.4627   -1.4027   -3.6027 H         1 <0>         0.0615
@<TRIPOS>BOND
     1    1    2 1
     2    1   38 1
     3    1   39 1
     4    1   40 1
     5    2    7 1
     6    2    3 2
     7    3    4 1
     8    3   41 1
     9    4    5 1
    10    4   36 1
    11    4   37 1
    12    5    6 1
    13    5   42 1
    14    6   11 1
    15    6    7 1
    16    6   43 1
    17    7    8 1
    18    7   44 1
    19    8   22 1
    20    8    9 2
    21    9   10 1
    22    9   12 1
    23   10   11 2
    24   10   45 1
    25   11   46 1
    26   12   17 ar
    27   12   13 ar
    28   13   14 ar
    29   13   21 1
    30   14   15 ar
    31   14   47 1
    32   15   16 ar
    33   15   48 1
    34   16   17 ar
    35   16   20 1
    36   17   18 1
    37   18   19 1
    38   19   49 1
    39   19   50 1
    40   19   51 1
    41   20   52 1
    42   21   22 1
    43   22   23 2
    44   23   24 1
    45   23   53 1
    46   24   29 ar
    47   24   25 ar
    48   25   26 ar
    49   25   54 1
    50   26   27 ar
    51   26   55 1
    52   27   28 ar
    53   27   56 1
    54   28   29 ar
    55   28   30 1
    56   29   57 1
    57   30   35 ar
    58   30   31 ar
    59   31   32 ar
    60   31   58 1
    61   32   33 ar
    62   32   59 1
    63   33   34 ar
    64   33   60 1
    65   34   35 ar
    66   34   61 1
    67   35   62 1
    68   36   63 1
    69   36   64 1
    70   36   65 1
    71   37   66 1
    72   37   67 1
    73   37   68 1
@<TRIPOS>MOLECULE
CHEMBL231770__5
   69    74     0     0     0
SMALL
USER_CHARGES

@<TRIPOS>ATOM
      1 C1         -0.9194    1.2119    0.0800 C.3       1 <0>        -0.1360
      2 C2         -0.4465   -0.1942   -0.1850 C.2       1 <0>        -0.0804
      3 C3         -0.5580   -0.6719   -1.3879 C.2       1 <0>        -0.1797
      4 C4         -0.1220   -2.0605   -1.7575 C.3       1 <0>         0.1026
      5 N1          0.8311   -2.5743   -0.7671 N.4       1 <0>        -0.4971
      6 C5          0.2453   -2.4558    0.5753 C.3       1 <0>         0.0765
      7 C6          0.1396   -0.9825    0.9515 C.3       1 <0>        -0.0226
      8 C7         -0.7077   -0.8097    2.1820 C.2       1 <0>        -0.0999
      9 C8         -1.7528   -1.6603    2.4142 C.2       1 <0>        -0.0013
     10 C9         -2.0212   -2.7644    1.4858 C.2       1 <0>        -0.0669
     11 C10        -1.0964   -3.1309    0.6043 C.2       1 <0>        -0.2146
     12 C11        -2.5865   -1.4368    3.6093 C.ar      1 <0>        -0.1392
     13 C12        -2.2549   -0.3827    4.4744 C.ar      1 <0>         0.1322
     14 C13        -3.0305   -0.1578    5.6013 C.ar      1 <0>        -0.1234
     15 C14        -4.1187   -0.9667    5.8711 C.ar      1 <0>        -0.0764
     16 C15        -4.4497   -2.0111    5.0212 C.ar      1 <0>         0.0751
     17 C16        -3.6850   -2.2527    3.8862 C.ar      1 <0>         0.1243
     18 O1         -4.0041   -3.2767    3.0514 O.3       1 <0>        -0.3259
     19 C17        -3.4075   -4.5462    3.3243 C.3       1 <0>         0.0279
     20 O2         -5.5231   -2.8000    5.2988 O.3       1 <0>        -0.4843
     21 O3         -1.1868    0.4054    4.2134 O.3       1 <0>        -0.2036
     22 C18        -0.4404    0.2229    3.1044 C.2       1 <0>         0.0979
     23 C19         0.6045    1.0627    2.8682 C.2       1 <0>        -0.1434
     24 C20         1.0097    2.0361    3.8903 C.ar      1 <0>        -0.0543
     25 C21         0.4462    1.9858    5.1720 C.ar      1 <0>        -0.1102
     26 C22         0.8275    2.9009    6.1305 C.ar      1 <0>        -0.1151
     27 C23         1.7663    3.8715    5.8343 C.ar      1 <0>        -0.1037
     28 C24         2.3358    3.9337    4.5626 C.ar      1 <0>        -0.0411
     29 C25         1.9637    3.0132    3.5900 C.ar      1 <0>        -0.1000
     30 C26         3.3425    4.9785    4.2499 C.ar      1 <0>        -0.0510
     31 C27         3.9084    5.0460    2.9785 C.ar      1 <0>        -0.1124
     32 C28         4.8438    6.0199    2.6931 C.ar      1 <0>        -0.1177
     33 C29         5.2196    6.9279    3.6665 C.ar      1 <0>        -0.1151
     34 C30         4.6614    6.8651    4.9305 C.ar      1 <0>        -0.1146
     35 C31         3.7209    5.8989    5.2251 C.ar      1 <0>        -0.1093
     36 C32        -1.3447   -2.9789   -1.8080 C.3       1 <0>        -0.1819
     37 C33         0.5439   -2.0328   -3.1347 C.3       1 <0>        -0.1726
     38 H1         -0.0989    1.9092   -0.0895 H         1 <0>         0.0854
     39 H2         -1.7438    1.4507   -0.5919 H         1 <0>         0.0788
     40 H3         -1.2575    1.2930    1.1131 H         1 <0>         0.0798
     41 H4         -0.9833   -0.0428   -2.1559 H         1 <0>         0.1533
     42 H5          1.0312   -3.5436   -0.9631 H         1 <0>         0.4333
     43 H6          0.9034   -2.9461    1.2926 H         1 <0>         0.1516
     44 H7          1.1365   -0.5987    1.1684 H         1 <0>         0.1276
     45 H8         -2.9711   -3.2775    1.5137 H         1 <0>         0.1728
     46 H9         -1.3055   -3.9271   -0.0949 H         1 <0>         0.1650
     47 H10        -2.7833    0.6524    6.2713 H         1 <0>         0.1526
     48 H11        -4.7167   -0.7832    6.7516 H         1 <0>         0.1550
     49 H12        -3.7453   -5.2728    2.5853 H         1 <0>         0.1037
     50 H13        -2.3224   -4.4557    3.2752 H         1 <0>         0.0479
     51 H14        -3.6997   -4.8784    4.3204 H         1 <0>         0.0620
     52 H15        -6.3525   -2.4852    4.9141 H         1 <0>         0.3991
     53 H16         1.1354    1.0132    1.9290 H         1 <0>         0.1445
     54 H17        -0.2877    1.2299    5.4094 H         1 <0>         0.1460
     55 H18         0.3903    2.8594    7.1172 H         1 <0>         0.1274
     56 H19         2.0596    4.5846    6.5906 H         1 <0>         0.1275
     57 H20         2.4060    3.0552    2.6056 H         1 <0>         0.1246
     58 H21         3.6158    4.3373    2.2179 H         1 <0>         0.1215
     59 H22         5.2833    6.0729    1.7080 H         1 <0>         0.1248
     60 H23         5.9519    7.6884    3.4389 H         1 <0>         0.1254
     61 H24         4.9587    7.5763    5.6869 H         1 <0>         0.1271
     62 H25         3.2821    5.8538    6.2109 H         1 <0>         0.1261
     63 H26        -1.8159   -2.9030   -2.7879 H         1 <0>         0.1018
     64 H27        -1.0330   -4.0087   -1.6335 H         1 <0>         0.0838
     65 H28        -2.0562   -2.6793   -1.0385 H         1 <0>         0.1025
     66 H29         1.4118   -1.3740   -3.1055 H         1 <0>         0.0829
     67 H30         0.8613   -3.0399   -3.4052 H         1 <0>         0.0846
     68 H31        -0.1668   -1.6649   -3.8747 H         1 <0>         0.1082
     69 H32         1.6846   -2.0378   -0.8108 H         1 <0>         0.4308
@<TRIPOS>BOND
     1    1    2 1
     2    1   38 1
     3    1   39 1
     4    1   40 1
     5    2    7 1
     6    2    3 2
     7    3    4 1
     8    3   41 1
     9    4    5 1
    10    4   36 1
    11    4   37 1
    12    5    6 1
    13    5   42 1
    14    5   69 1
    15    6   11 1
    16    6    7 1
    17    6   43 1
    18    7    8 1
    19    7   44 1
    20    8   22 1
    21    8    9 2
    22    9   10 1
    23    9   12 1
    24   10   11 2
    25   10   45 1
    26   11   46 1
    27   12   17 ar
    28   12   13 ar
    29   13   14 ar
    30   13   21 1
    31   14   15 ar
    32   14   47 1
    33   15   16 ar
    34   15   48 1
    35   16   17 ar
    36   16   20 1
    37   17   18 1
    38   18   19 1
    39   19   49 1
    40   19   50 1
    41   19   51 1
    42   20   52 1
    43   21   22 1
    44   22   23 2
    45   23   24 1
    46   23   53 1
    47   24   29 ar
    48   24   25 ar
    49   25   26 ar
    50   25   54 1
    51   26   27 ar
    52   26   55 1
    53   27   28 ar
    54   27   56 1
    55   28   29 ar
    56   28   30 1
    57   29   57 1
    58   30   35 ar
    59   30   31 ar
    60   31   32 ar
    61   31   58 1
    62   32   33 ar
    63   32   59 1
    64   33   34 ar
    65   33   60 1
    66   34   35 ar
    67   34   61 1
    68   35   62 1
    69   36   63 1
    70   36   64 1
    71   36   65 1
    72   37   66 1
    73   37   67 1
    74   37   68 1
@<TRIPOS>MOLECULE
CHEMBL231770__6
   68    73     0     0     0
SMALL
USER_CHARGES

@<TRIPOS>ATOM
      1 C1          0.3135    1.3971   -0.6346 C.3       1 <0>        -0.1224
      2 C2          0.2431   -0.0972   -0.4106 C.2       1 <0>        -0.1002
      3 C3          0.4121   -0.8661   -1.4555 C.2       1 <0>        -0.1817
      4 C4          0.2847   -2.3593   -1.4109 C.3       1 <0>         0.1431
      5 N1         -0.5052   -2.7621   -0.2371 N.3       1 <0>        -0.6605
      6 C5          0.0386   -2.1807    0.9781 C.3       1 <0>         0.1209
      7 C6         -0.0340   -0.6459    0.9351 C.3       1 <0>        -0.0334
      8 C7          0.7558   -0.1660    2.1034 C.2       1 <0>        -0.0963
      9 C8          0.4307   -0.7668    3.3178 C.2       1 <0>        -0.0173
     10 C9         -0.5419   -1.8666    3.3252 C.2       1 <0>        -0.1195
     11 C10        -0.7358   -2.5893    2.2108 C.2       1 <0>        -0.1228
     12 C11         1.0728   -0.2474    4.5351 C.ar      1 <0>        -0.1193
     13 C12         1.8416    0.9282    4.4380 C.ar      1 <0>         0.1241
     14 C13         2.4370    1.4660    5.5643 C.ar      1 <0>        -0.1285
     15 C14         2.2938    0.8426    6.7902 C.ar      1 <0>        -0.0904
     16 C15         1.5572   -0.3257    6.8973 C.ar      1 <0>         0.0632
     17 C16         0.9490   -0.8782    5.7736 C.ar      1 <0>         0.1239
     18 O1          0.2561   -2.0396    5.9070 O.3       1 <0>        -0.3258
     19 C17         0.9889   -3.2550    5.7404 C.3       1 <0>         0.0399
     20 O2          1.4266   -0.9393    8.1053 O.3       1 <0>        -0.4871
     21 O3          2.0139    1.5184    3.2253 O.3       1 <0>        -0.2268
     22 C18         1.8252    0.7295    2.1308 C.2       1 <0>         0.0986
     23 C19         2.7585    0.7788    1.1482 C.2       1 <0>        -0.1211
     24 C20         3.7518    1.8603    1.1326 C.ar      1 <0>        -0.0475
     25 C21         3.6358    2.9347    2.0242 C.ar      1 <0>        -0.1038
     26 C22         4.5692    3.9496    2.0079 C.ar      1 <0>        -0.1192
     27 C23         5.6233    3.9140    1.1142 C.ar      1 <0>        -0.1079
     28 C24         5.7516    2.8506    0.2206 C.ar      1 <0>        -0.0479
     29 C25         4.8203    1.8190    0.2316 C.ar      1 <0>        -0.0978
     30 C26         6.8848    2.8181   -0.7372 C.ar      1 <0>        -0.0439
     31 C27         7.0116    1.7598   -1.6345 C.ar      1 <0>        -0.1122
     32 C28         8.0671    1.7347   -2.5235 C.ar      1 <0>        -0.1168
     33 C29         8.9981    2.7577   -2.5246 C.ar      1 <0>        -0.1198
     34 C30         8.8773    3.8106   -1.6356 C.ar      1 <0>        -0.1169
     35 C31         7.8225    3.8486   -0.7463 C.ar      1 <0>        -0.1120
     36 C32         1.6695   -2.9975   -1.3670 C.3       1 <0>        -0.1335
     37 C33        -0.4400   -2.8296   -2.6765 C.3       1 <0>        -0.1401
     38 H1          1.3382    1.7386   -0.4879 H         1 <0>         0.0754
     39 H2         -0.0042    1.6275   -1.6514 H         1 <0>         0.0640
     40 H3         -0.3427    1.9020    0.0743 H         1 <0>         0.0609
     41 H4          0.6554   -0.4005   -2.3958 H         1 <0>         0.1135
     42 H5         -1.4796   -2.5303   -0.3600 H         1 <0>         0.3480
     43 H6          1.0722   -2.4793    1.1254 H         1 <0>         0.0946
     44 H7         -1.0963   -0.3950    1.1611 H         1 <0>         0.0880
     45 H8         -1.1230   -2.0886    4.2076 H         1 <0>         0.1394
     46 H9         -1.4109   -3.4236    2.1856 H         1 <0>         0.1376
     47 H10         3.0156    2.3752    5.4893 H         1 <0>         0.1456
     48 H11         2.7585    1.2687    7.6663 H         1 <0>         0.1468
     49 H12         1.7864   -3.3030    6.4819 H         1 <0>         0.0523
     50 H13         0.3186   -4.1044    5.8723 H         1 <0>         0.0981
     51 H14         1.4206   -3.2848    4.7400 H         1 <0>         0.0467
     52 H15         0.6610   -0.6429    8.6163 H         1 <0>         0.3931
     53 H16         2.7712    0.0227    0.3771 H         1 <0>         0.1413
     54 H17         2.8145    2.9682    2.7247 H         1 <0>         0.1481
     55 H18         4.4760    4.7765    2.6963 H         1 <0>         0.1249
     56 H19         6.3501    4.7128    1.1077 H         1 <0>         0.1241
     57 H20         4.9189    0.9916   -0.4554 H         1 <0>         0.1251
     58 H21         6.2854    0.9603   -1.6342 H         1 <0>         0.1240
     59 H22         8.1665    0.9147   -3.2192 H         1 <0>         0.1242
     60 H23         9.8225    2.7342   -3.2218 H         1 <0>         0.1229
     61 H24         9.6071    4.6066   -1.6405 H         1 <0>         0.1244
     62 H25         7.7264    4.6735   -0.0558 H         1 <0>         0.1251
     63 H26         2.1993   -2.6553   -0.4780 H         1 <0>         0.0523
     64 H27         1.5687   -4.0824   -1.3347 H         1 <0>         0.0673
     65 H28         2.2301   -2.7110   -2.2568 H         1 <0>         0.0627
     66 H29         0.1335   -2.5334   -3.5549 H         1 <0>         0.0645
     67 H30        -0.5391   -3.9149   -2.6563 H         1 <0>         0.0678
     68 H31        -1.4298   -2.3751   -2.7186 H         1 <0>         0.0557
@<TRIPOS>BOND
     1    1    2 1
     2    1   38 1
     3    1   39 1
     4    1   40 1
     5    2    7 1
     6    2    3 2
     7    3    4 1
     8    3   41 1
     9    4    5 1
    10    4   36 1
    11    4   37 1
    12    5    6 1
    13    5   42 1
    14    6   11 1
    15    6    7 1
    16    6   43 1
    17    7    8 1
    18    7   44 1
    19    8   22 1
    20    8    9 2
    21    9   10 1
    22    9   12 1
    23   10   11 2
    24   10   45 1
    25   11   46 1
    26   12   17 ar
    27   12   13 ar
    28   13   14 ar
    29   13   21 1
    30   14   15 ar
    31   14   47 1
    32   15   16 ar
    33   15   48 1
    34   16   17 ar
    35   16   20 1
    36   17   18 1
    37   18   19 1
    38   19   49 1
    39   19   50 1
    40   19   51 1
    41   20   52 1
    42   21   22 1
    43   22   23 2
    44   23   24 1
    45   23   53 1
    46   24   29 ar
    47   24   25 ar
    48   25   26 ar
    49   25   54 1
    50   26   27 ar
    51   26   55 1
    52   27   28 ar
    53   27   56 1
    54   28   29 ar
    55   28   30 1
    56   29   57 1
    57   30   35 ar
    58   30   31 ar
    59   31   32 ar
    60   31   58 1
    61   32   33 ar
    62   32   59 1
    63   33   34 ar
    64   33   60 1
    65   34   35 ar
    66   34   61 1
    67   35   62 1
    68   36   63 1
    69   36   64 1
    70   36   65 1
    71   37   66 1
    72   37   67 1
    73   37   68 1
@<TRIPOS>MOLECULE
CHEMBL231770__7
   69    74     0     0     0
SMALL
USER_CHARGES

@<TRIPOS>ATOM
      1 C1          0.3147    1.4041   -0.6347 C.3       1 <0>        -0.1327
      2 C2          0.2426   -0.0905   -0.4142 C.2       1 <0>        -0.0702
      3 C3          0.4132   -0.8598   -1.4589 C.2       1 <0>        -0.1909
      4 C4          0.2817   -2.3520   -1.4153 C.3       1 <0>         0.1014
      5 N1         -0.5222   -2.7571   -0.2527 N.4       1 <0>        -0.4877
      6 C5          0.0358   -2.1810    0.9581 C.3       1 <0>         0.0522
      7 C6         -0.0370   -0.6460    0.9298 C.3       1 <0>        -0.0095
      8 C7          0.7640   -0.1768    2.0954 C.2       1 <0>        -0.0950
      9 C8          0.4595   -0.7949    3.3065 C.2       1 <0>        -0.0164
     10 C9         -0.5115   -1.8960    3.3169 C.2       1 <0>        -0.0375
     11 C10        -0.7222   -2.6040    2.1968 C.2       1 <0>        -0.2105
     12 C11         1.1210   -0.2914    4.5203 C.ar      1 <0>        -0.1359
     13 C12         1.8689    0.8983    4.4317 C.ar      1 <0>         0.1306
     14 C13         2.4780    1.4240    5.5560 C.ar      1 <0>        -0.1250
     15 C14         2.3706    0.7735    6.7717 C.ar      1 <0>        -0.0773
     16 C15         1.6577   -0.4105    6.8692 C.ar      1 <0>         0.0696
     17 C16         1.0358   -0.9507    5.7471 C.ar      1 <0>         0.1265
     18 O1          0.3687   -2.1285    5.8688 O.3       1 <0>        -0.3284
     19 C17         1.1216   -3.3251    5.6604 C.3       1 <0>         0.0374
     20 O2          1.5651   -1.0519    8.0664 O.3       1 <0>        -0.4852
     21 O3          2.0087    1.5109    3.2255 O.3       1 <0>        -0.2202
     22 C18         1.8253    0.7282    2.1250 C.2       1 <0>         0.0756
     23 C19         2.7574    0.7925    1.1425 C.2       1 <0>        -0.0936
     24 C20         3.7397    1.8842    1.1326 C.ar      1 <0>        -0.0672
     25 C21         3.6132    2.9522    2.0304 C.ar      1 <0>        -0.0970
     26 C22         4.5362    3.9766    2.0194 C.ar      1 <0>        -0.1185
     27 C23         5.5902    3.9568    1.1252 C.ar      1 <0>        -0.0965
     28 C24         5.7289    2.8999    0.2255 C.ar      1 <0>        -0.0432
     29 C25         4.8081    1.8588    0.2310 C.ar      1 <0>        -0.0936
     30 C26         6.8619    2.8843   -0.7330 C.ar      1 <0>        -0.0517
     31 C27         6.9990    1.8325   -1.6364 C.ar      1 <0>        -0.1124
     32 C28         8.0543    1.8232   -2.5259 C.ar      1 <0>        -0.1174
     33 C29         8.9748    2.8556   -2.5216 C.ar      1 <0>        -0.1145
     34 C30         8.8437    3.9021   -1.6266 C.ar      1 <0>        -0.1142
     35 C31         7.7890    3.9243   -0.7366 C.ar      1 <0>        -0.1091
     36 C32         1.6634   -2.9952   -1.3629 C.3       1 <0>        -0.1715
     37 C33        -0.4327   -2.8179   -2.6893 C.3       1 <0>        -0.1735
     38 H1          1.3395    1.7443   -0.4858 H         1 <0>         0.0913
     39 H2         -0.0013    1.6370   -1.6516 H         1 <0>         0.0804
     40 H3         -0.3421    1.9081    0.0743 H         1 <0>         0.0760
     41 H4          0.6599   -0.3942   -2.3985 H         1 <0>         0.1547
     42 H5         -1.4748   -2.4377   -0.3798 H         1 <0>         0.4302
     43 H6          1.0710   -2.4798    1.0938 H         1 <0>         0.1480
     44 H7         -1.0969   -0.3928    1.1612 H         1 <0>         0.1196
     45 H8         -1.0754   -2.1310    4.2074 H         1 <0>         0.1600
     46 H9         -1.3993   -3.4364    2.1696 H         1 <0>         0.1562
     47 H10         3.0393    2.3445    5.4883 H         1 <0>         0.1509
     48 H11         2.8441    1.1909    7.6471 H         1 <0>         0.1531
     49 H12         0.4710   -4.1904    5.7870 H         1 <0>         0.1012
     50 H13         1.5329   -3.3244    4.6510 H         1 <0>         0.0420
     51 H14         1.9351   -3.3731    6.3842 H         1 <0>         0.0588
     52 H15         0.8058   -0.7806    8.6002 H         1 <0>         0.3985
     53 H16         2.7775    0.0410    0.3672 H         1 <0>         0.1388
     54 H17         2.7919    2.9734    2.7315 H         1 <0>         0.1486
     55 H18         4.4349    4.7987    2.7126 H         1 <0>         0.1292
     56 H19         6.3089    4.7630    1.1229 H         1 <0>         0.1287
     57 H20         4.9148    1.0364   -0.4608 H         1 <0>         0.1252
     58 H21         6.2810    1.0257   -1.6403 H         1 <0>         0.1211
     59 H22         8.1617    1.0082   -3.2263 H         1 <0>         0.1249
     60 H23         9.7990    2.8445   -3.2193 H         1 <0>         0.1257
     61 H24         9.5655    4.7055   -1.6273 H         1 <0>         0.1274
     62 H25         7.6849    4.7443   -0.0415 H         1 <0>         0.1263
     63 H26         2.1890   -2.6549   -0.4707 H         1 <0>         0.0783
     64 H27         1.5584   -4.0797   -1.3314 H         1 <0>         0.0859
     65 H28         2.2304   -2.7107   -2.2493 H         1 <0>         0.1105
     66 H29         0.1504   -2.5224   -3.5616 H         1 <0>         0.1095
     67 H30        -0.5358   -3.9029   -2.6719 H         1 <0>         0.0851
     68 H31        -1.4204   -2.3598   -2.7403 H         1 <0>         0.0840
     69 H32        -0.5274   -3.7670   -0.1855 H         1 <0>         0.4324
@<TRIPOS>BOND
     1    1    2 1
     2    1   38 1
     3    1   39 1
     4    1   40 1
     5    2    7 1
     6    2    3 2
     7    3    4 1
     8    3   41 1
     9    4    5 1
    10    4   36 1
    11    4   37 1
    12    5    6 1
    13    5   42 1
    14    5   69 1
    15    6   11 1
    16    6    7 1
    17    6   43 1
    18    7    8 1
    19    7   44 1
    20    8   22 1
    21    8    9 2
    22    9   10 1
    23    9   12 1
    24   10   11 2
    25   10   45 1
    26   11   46 1
    27   12   17 ar
    28   12   13 ar
    29   13   14 ar
    30   13   21 1
    31   14   15 ar
    32   14   47 1
    33   15   16 ar
    34   15   48 1
    35   16   17 ar
    36   16   20 1
    37   17   18 1
    38   18   19 1
    39   19   49 1
    40   19   50 1
    41   19   51 1
    42   20   52 1
    43   21   22 1
    44   22   23 2
    45   23   24 1
    46   23   53 1
    47   24   29 ar
    48   24   25 ar
    49   25   26 ar
    50   25   54 1
    51   26   27 ar
    52   26   55 1
    53   27   28 ar
    54   27   56 1
    55   28   29 ar
    56   28   30 1
    57   29   57 1
    58   30   35 ar
    59   30   31 ar
    60   31   32 ar
    61   31   58 1
    62   32   33 ar
    63   32   59 1
    64   33   34 ar
    65   33   60 1
    66   34   35 ar
    67   34   61 1
    68   35   62 1
    69   36   63 1
    70   36   64 1
    71   36   65 1
    72   37   66 1
    73   37   67 1
    74   37   68 1
@<TRIPOS>MOLECULE
CHEMBL230988
   55    58     0     0     0
SMALL
USER_CHARGES

@<TRIPOS>ATOM
      1 C1         -0.2242    1.8780    0.5695 C.3       1 <0>         0.0787
      2 N1         -0.1559    0.4241    0.4031 N.am      1 <0>        -0.5561
      3 C2         -0.5564   -0.3825    1.4056 C.2       1 <0>         0.5577
      4 O1         -0.9740    0.0944    2.4470 O.2       1 <0>        -0.5084
      5 C3         -0.4903   -1.7752    1.2433 C.2       1 <0>        -0.2674
      6 C4         -0.0186   -2.2849    0.0656 C.2       1 <0>         0.4551
      7 N2          0.3791   -1.4258   -0.9299 N.am      1 <0>        -0.6474
      8 H1          0.7144   -1.7811   -1.7679 H         1 <0>         0.4298
      9 C5          0.3009   -0.0943   -0.7513 C.2       1 <0>         0.7013
     10 O2          0.6529    0.6514   -1.6447 O.2       1 <0>        -0.5401
     11 N3          0.0573   -3.6415   -0.1200 N.pl3     1 <0>        -0.6556
     12 C6         -1.1623   -4.4437   -0.2864 C.3       1 <0>         0.1378
     13 C7         -1.0416   -5.2631   -1.5751 C.3       1 <0>        -0.1263
     14 C8          0.2497   -6.0836   -1.5341 C.3       1 <0>        -0.1283
     15 C9          1.4523   -5.1412   -1.4465 C.3       1 <0>        -0.1283
     16 C10         1.3601   -4.3196   -0.1624 C.3       1 <0>         0.1357
     17 C11         0.3549   -6.9168   -2.7854 C.2       1 <0>         0.4016
     18 O3         -0.1379   -6.5215   -3.8203 O.2       1 <0>        -0.4455
     19 C12         1.0559   -8.2104   -2.7512 C.ar      1 <0>        -0.1730
     20 C13         1.6207   -8.6725   -1.5581 C.ar      1 <0>        -0.0735
     21 C14         2.2755   -9.8857   -1.5341 C.ar      1 <0>        -0.1325
     22 C15         2.3746  -10.6456   -2.6866 C.ar      1 <0>        -0.0859
     23 C16         1.8187  -10.1950   -3.8713 C.ar      1 <0>        -0.1316
     24 C17         1.1558   -8.9866   -3.9102 C.ar      1 <0>        -0.0615
     25 C18        -0.9326   -2.6956    2.3516 C.3       1 <0>         0.0010
     26 C19         0.1980   -2.8827    3.3304 C.ar      1 <0>        -0.0755
     27 C20         1.0325   -3.9794    3.2210 C.ar      1 <0>        -0.1167
     28 C21         2.0695   -4.1510    4.1188 C.ar      1 <0>        -0.1241
     29 C22         2.2723   -3.2258    5.1256 C.ar      1 <0>        -0.1238
     30 C23         1.4384   -2.1287    5.2344 C.ar      1 <0>        -0.1208
     31 C24         0.4040   -1.9548    4.3341 C.ar      1 <0>        -0.1062
     32 H2          0.1332    2.3648   -0.3379 H         1 <0>         0.0998
     33 H3         -1.2562    2.1740    0.7582 H         1 <0>         0.0806
     34 H4          0.3993    2.1770    1.4120 H         1 <0>         0.0801
     35 H5         -1.2767   -5.1155    0.5643 H         1 <0>         0.0745
     36 H6         -2.0274   -3.7839   -0.3526 H         1 <0>         0.0848
     37 H7         -1.8963   -5.9340   -1.6611 H         1 <0>         0.0813
     38 H8         -1.0184   -4.5909   -2.4328 H         1 <0>         0.0788
     39 H9          0.2367   -6.7378   -0.6624 H         1 <0>         0.1015
     40 H10         2.3726   -5.7253   -1.4409 H         1 <0>         0.0844
     41 H11         1.4520   -4.4701   -2.3054 H         1 <0>         0.0738
     42 H12         2.1587   -3.5779   -0.1468 H         1 <0>         0.0810
     43 H13         1.4559   -4.9810    0.6987 H         1 <0>         0.0772
     44 H14         1.5444   -8.0804   -0.6581 H         1 <0>         0.1324
     45 H15         2.7124  -10.2438   -0.6136 H         1 <0>         0.1305
     46 H16         2.8887  -11.5951   -2.6614 H         1 <0>         0.1286
     47 H17         1.9006  -10.7936   -4.7665 H         1 <0>         0.1301
     48 H18         0.7187   -8.6384   -4.8344 H         1 <0>         0.1329
     49 H19        -1.7896   -2.2601    2.8654 H         1 <0>         0.0871
     50 H20        -1.2131   -3.6615    1.9316 H         1 <0>         0.0850
     51 H21         0.8740   -4.7022    2.4343 H         1 <0>         0.1192
     52 H22         2.7210   -5.0082    4.0337 H         1 <0>         0.1186
     53 H23         3.0821   -3.3603    5.8275 H         1 <0>         0.1184
     54 H24         1.5966   -1.4061    6.0213 H         1 <0>         0.1194
     55 H25        -0.2453   -1.0957    4.4168 H         1 <0>         0.1299
@<TRIPOS>BOND
     1    1    2 1
     2    1   32 1
     3    1   33 1
     4    1   34 1
     5    2    9 am
     6    2    3 am
     7    3    4 2
     8    3    5 1
     9    5    6 2
    10    5   25 1
    11    6    7 1
    12    6   11 1
    13    7    8 1
    14    7    9 am
    15    9   10 2
    16   11   16 1
    17   11   12 1
    18   12   13 1
    19   12   35 1
    20   12   36 1
    21   13   14 1
    22   13   37 1
    23   13   38 1
    24   14   15 1
    25   14   17 1
    26   14   39 1
    27   15   16 1
    28   15   40 1
    29   15   41 1
    30   16   42 1
    31   16   43 1
    32   17   18 2
    33   17   19 1
    34   19   24 ar
    35   19   20 ar
    36   20   21 ar
    37   20   44 1
    38   21   22 ar
    39   21   45 1
    40   22   23 ar
    41   22   46 1
    42   23   24 ar
    43   23   47 1
    44   24   48 1
    45   25   26 1
    46   25   49 1
    47   25   50 1
    48   26   31 ar
    49   26   27 ar
    50   27   28 ar
    51   27   51 1
    52   28   29 ar
    53   28   52 1
    54   29   30 ar
    55   29   53 1
    56   30   31 ar
    57   30   54 1
    58   31   55 1
@<TRIPOS>MOLECULE
CHEMBL379024
   59    62     0     0     0
SMALL
USER_CHARGES

@<TRIPOS>ATOM
      1 C1         -0.0187    1.5258    0.0104 C.3       1 <0>        -0.1579
      2 C2          0.0021   -0.0041    0.0020 C.3       1 <0>         0.2164
      3 C3          0.6961   -0.4876   -1.2433 C.2       1 <0>        -0.1478
      4 C4          2.0014   -0.7260   -1.2518 C.2       1 <0>        -0.0437
      5 C5          2.7881   -0.5295   -0.0176 C.ar      1 <0>        -0.1180
      6 C6          4.1746   -0.4537   -0.0471 C.ar      1 <0>        -0.0462
      7 C7          4.8769   -0.2717    1.1418 C.ar      1 <0>        -0.0925
      8 C8          4.1915   -0.1666    2.3529 C.ar      1 <0>        -0.0403
      9 C9          2.8129   -0.2400    2.3829 C.ar      1 <0>        -0.1812
     10 C10         2.1068   -0.4187    1.2064 C.ar      1 <0>         0.2236
     11 N1          0.7127   -0.4886    1.1924 N.pl3     1 <0>        -0.7433
     12 C11         6.3577   -0.1899    1.1208 C.ar      1 <0>        -0.0347
     13 C12         7.1021   -1.1553    0.4465 C.ar      1 <0>        -0.1068
     14 C13         8.4817   -1.0744    0.4300 C.ar      1 <0>         0.0642
     15 C14         9.1265   -0.0358    1.0824 C.ar      1 <0>        -0.1150
     16 C15         8.3956    0.9258    1.7541 C.ar      1 <0>        -0.1790
     17 C16         7.0119    0.8593    1.7727 C.ar      1 <0>         0.1280
     18 O1          6.2929    1.8085    2.4277 O.3       1 <0>        -0.3033
     19 C17         7.0287    2.8509    3.0711 C.3       1 <0>         0.0233
     20 F1          9.2036   -2.0108   -0.2236 F         1 <0>        -0.1403
     21 C18         2.6775   -1.1954   -2.5143 C.3       1 <0>        -0.0466
     22 S1          3.6207    0.1737   -3.2399 S.3       1 <0>        -0.2412
     23 C19         4.3628   -0.5462   -4.7304 C.3       1 <0>        -0.0857
     24 C20         5.1974    0.5161   -5.4487 C.3       1 <0>        -0.0627
     25 C21         5.8139   -0.0819   -6.6870 C.ar      1 <0>        -0.0815
     26 C22         7.0551   -0.6864   -6.6182 C.ar      1 <0>        -0.1143
     27 C23         7.6207   -1.2350   -7.7540 C.ar      1 <0>        -0.1178
     28 C24         6.9447   -1.1794   -8.9586 C.ar      1 <0>        -0.1219
     29 C25         5.7031   -0.5757   -9.0272 C.ar      1 <0>        -0.1183
     30 C26         5.1357   -0.0309   -7.8904 C.ar      1 <0>        -0.1150
     31 C27        -1.4340   -0.5316    0.0180 C.3       1 <0>        -0.1530
     32 H1          1.0039    1.9031    0.0027 H         1 <0>         0.0593
     33 H2         -0.5459    1.8868   -0.8726 H         1 <0>         0.0660
     34 H3         -0.5289    1.8773    0.9072 H         1 <0>         0.0606
     35 H4          0.1220   -0.6434   -2.1447 H         1 <0>         0.1243
     36 H5          4.7042   -0.5356   -0.9848 H         1 <0>         0.1351
     37 H6          4.7422   -0.0275    3.2714 H         1 <0>         0.1235
     38 H7          2.2870   -0.1583    3.3227 H         1 <0>         0.1245
     39 H8          0.2254   -0.8478    1.9503 H         1 <0>         0.4025
     40 H9          6.6018   -1.9659   -0.0624 H         1 <0>         0.1412
     41 H10        10.2048    0.0223    1.0661 H         1 <0>         0.1379
     42 H11         8.9036    1.7328    2.2611 H         1 <0>         0.1392
     43 H12         7.6187    3.3900    2.3299 H         1 <0>         0.0568
     44 H13         6.3360    3.5395    3.5549 H         1 <0>         0.1022
     45 H14         7.6929    2.4183    3.8194 H         1 <0>         0.0567
     46 H15         3.3530   -2.0182   -2.2803 H         1 <0>         0.0906
     47 H16         1.9242   -1.5346   -3.2253 H         1 <0>         0.0894
     48 H17         5.0029   -1.3827   -4.4499 H         1 <0>         0.0823
     49 H18         3.5741   -0.8991   -5.3949 H         1 <0>         0.0817
     50 H19         4.5573    1.3526   -5.7292 H         1 <0>         0.0822
     51 H20         5.9861    0.8690   -4.7842 H         1 <0>         0.0825
     52 H21         7.5832   -0.7298   -5.6771 H         1 <0>         0.1224
     53 H22         8.5907   -1.7067   -7.7004 H         1 <0>         0.1228
     54 H23         7.3869   -1.6074   -9.8461 H         1 <0>         0.1219
     55 H24         5.1751   -0.5320   -9.9683 H         1 <0>         0.1225
     56 H25         4.1640    0.4375   -7.9432 H         1 <0>         0.1220
     57 H26        -1.9638   -0.1698   -0.8632 H         1 <0>         0.0746
     58 H27        -1.4208   -1.6215    0.0120 H         1 <0>         0.0633
     59 H28        -1.9405   -0.1793    0.9166 H         1 <0>         0.0645
@<TRIPOS>BOND
     1    1    2 1
     2    1   32 1
     3    1   33 1
     4    1   34 1
     5    2   11 1
     6    2    3 1
     7    2   31 1
     8    3    4 2
     9    3   35 1
    10    4    5 1
    11    4   21 1
    12    5   10 ar
    13    5    6 ar
    14    6    7 ar
    15    6   36 1
    16    7    8 ar
    17    7   12 1
    18    8    9 ar
    19    8   37 1
    20    9   10 ar
    21    9   38 1
    22   10   11 1
    23   11   39 1
    24   12   17 ar
    25   12   13 ar
    26   13   14 ar
    27   13   40 1
    28   14   15 ar
    29   14   20 1
    30   15   16 ar
    31   15   41 1
    32   16   17 ar
    33   16   42 1
    34   17   18 1
    35   18   19 1
    36   19   43 1
    37   19   44 1
    38   19   45 1
    39   21   22 1
    40   21   46 1
    41   21   47 1
    42   22   23 1
    43   23   24 1
    44   23   48 1
    45   23   49 1
    46   24   25 1
    47   24   50 1
    48   24   51 1
    49   25   30 ar
    50   25   26 ar
    51   26   27 ar
    52   26   52 1
    53   27   28 ar
    54   27   53 1
    55   28   29 ar
    56   28   54 1
    57   29   30 ar
    58   29   55 1
    59   30   56 1
    60   31   57 1
    61   31   58 1
    62   31   59 1
@<TRIPOS>MOLECULE
CHEMBL193798
   66    72     0     0     0
SMALL
USER_CHARGES

@<TRIPOS>ATOM
      1 C1         -0.0187    1.5258    0.0104 C.3       1 <0>        -0.1614
      2 C2          0.0021   -0.0041    0.0020 C.3       1 <0>        -0.0060
      3 C3         -1.4431   -0.4129    0.0400 C.3       1 <0>        -0.0214
      4 C4         -1.6531   -1.6283    0.9005 C.2       1 <0>        -0.2176
      5 C5         -2.6808   -2.5549    0.9007 C.2       1 <0>         0.0693
      6 N1         -2.4564   -3.4291    1.8555 N.2       1 <0>        -0.2911
      7 N2         -1.2608   -3.0896    2.5107 N.pl3     1 <0>        -0.3111
      8 C6         -0.7576   -1.9952    1.8956 C.2       1 <0>         0.1209
      9 C7          0.5067   -1.2683    2.0974 C.2       1 <0>        -0.1074
     10 C8          0.8498   -0.3785    1.1793 C.2       1 <0>        -0.0546
     11 C9          2.2300    0.2563    1.2370 C.3       1 <0>        -0.0905
     12 C10         2.9388   -0.0940   -0.0791 C.3       1 <0>        -0.1150
     13 C11         2.0985    0.3389   -1.2794 C.3       1 <0>        -0.1664
     14 C12         0.7398   -0.3686   -1.2747 C.3       1 <0>         0.2736
     15 O1          0.9213   -1.7865   -1.3710 O.3       1 <0>        -0.3453
     16 C13         0.8078   -2.1321   -2.7643 C.3       1 <0>         0.1033
     17 H1         -0.0134   -2.8329   -2.9148 H         1 <0>         0.1021
     18 C14         0.5142   -0.7984   -3.4863 C.3       1 <0>         0.1021
     19 H2          1.4312   -0.3676   -3.8883 H         1 <0>         0.0932
     20 O2         -0.0217    0.0334   -2.4276 O.3       1 <0>        -0.3483
     21 C15        -0.5033   -0.9971   -4.5800 C.ar      1 <0>        -0.0906
     22 C16        -1.8530   -0.9576   -4.2839 C.ar      1 <0>        -0.0912
     23 C17        -2.7864   -1.1398   -5.2871 C.ar      1 <0>        -0.1204
     24 C18        -2.3701   -1.3611   -6.5866 C.ar      1 <0>        -0.1122
     25 C19        -1.0204   -1.3997   -6.8829 C.ar      1 <0>        -0.1194
     26 C20        -0.0871   -1.2132   -5.8804 C.ar      1 <0>        -0.1032
     27 C21         2.0997   -2.7264   -3.2630 C.ar      1 <0>        -0.1005
     28 C22         3.3058   -2.2896   -2.7476 C.ar      1 <0>        -0.1113
     29 C23         4.4909   -2.8347   -3.2051 C.ar      1 <0>        -0.1206
     30 C24         4.4699   -3.8169   -4.1777 C.ar      1 <0>        -0.1144
     31 C25         3.2638   -4.2542   -4.6924 C.ar      1 <0>        -0.1182
     32 C26         2.0785   -3.7122   -4.2318 C.ar      1 <0>        -0.1033
     33 C27        -0.6940   -3.7613    3.6020 C.ar      1 <0>         0.1476
     34 C28         0.6865   -3.8531    3.7212 C.ar      1 <0>        -0.1034
     35 C29         1.2432   -4.5151    4.7977 C.ar      1 <0>        -0.1307
     36 C30         0.4257   -5.0872    5.7581 C.ar      1 <0>         0.0976
     37 C31        -0.9513   -4.9970    5.6409 C.ar      1 <0>        -0.1325
     38 C32        -1.5118   -4.3310    4.5689 C.ar      1 <0>        -0.0816
     39 F1          0.9722   -5.7344    6.8106 F         1 <0>        -0.1336
     40 H3          1.0035    1.9028    0.0449 H         1 <0>         0.0705
     41 H4         -0.5090    1.8875   -0.8933 H         1 <0>         0.0722
     42 H5         -0.5652    1.8769    0.8857 H         1 <0>         0.0651
     43 H6         -2.0356    0.4111    0.4375 H         1 <0>         0.0799
     44 H7         -1.7773   -0.6329   -0.9739 H         1 <0>         0.0845
     45 H8         -3.5262   -2.5586    0.2287 H         1 <0>         0.1873
     46 H9          1.1334   -1.4610    2.9556 H         1 <0>         0.1340
     47 H10         2.1383    1.3381    1.3338 H         1 <0>         0.0859
     48 H11         2.7903   -0.1476    2.0803 H         1 <0>         0.0805
     49 H12         3.9024    0.4143   -0.1138 H         1 <0>         0.0758
     50 H13         3.1003   -1.1710   -0.1239 H         1 <0>         0.0753
     51 H14         1.9419    1.4168   -1.2378 H         1 <0>         0.0932
     52 H15         2.6298    0.0895   -2.1979 H         1 <0>         0.0762
     53 H16        -2.1783   -0.7847   -3.2686 H         1 <0>         0.1282
     54 H17        -3.8409   -1.1097   -5.0556 H         1 <0>         0.1252
     55 H18        -3.0993   -1.5042   -7.3703 H         1 <0>         0.1238
     56 H19        -0.6951   -1.5729   -7.8981 H         1 <0>         0.1252
     57 H20         0.9673   -1.2396   -6.1125 H         1 <0>         0.1224
     58 H21         3.3222   -1.5223   -1.9878 H         1 <0>         0.1332
     59 H22         5.4332   -2.4930   -2.8029 H         1 <0>         0.1233
     60 H23         5.3959   -4.2422   -4.5356 H         1 <0>         0.1232
     61 H24         3.2475   -5.0213   -5.4525 H         1 <0>         0.1247
     62 H25         1.1361   -4.0565   -4.6313 H         1 <0>         0.1225
     63 H26         1.3243   -3.4075    2.9722 H         1 <0>         0.1430
     64 H27         2.3168   -4.5871    4.8905 H         1 <0>         0.1470
     65 H28        -1.5871   -5.4441    6.3908 H         1 <0>         0.1468
     66 H29        -2.5856   -4.2567    4.4804 H         1 <0>         0.1446
@<TRIPOS>BOND
     1    1    2 1
     2    1   40 1
     3    1   41 1
     4    1   42 1
     5    2   10 1
     6    2   14 1
     7    2    3 1
     8    3    4 1
     9    3   43 1
    10    3   44 1
    11    4    8 2
    12    4    5 1
    13    5    6 2
    14    5   45 1
    15    6    7 1
    16    7    8 1
    17    7   33 1
    18    8    9 1
    19    9   10 2
    20    9   46 1
    21   10   11 1
    22   11   12 1
    23   11   47 1
    24   11   48 1
    25   12   13 1
    26   12   49 1
    27   12   50 1
    28   13   14 1
    29   13   51 1
    30   13   52 1
    31   14   20 1
    32   14   15 1
    33   15   16 1
    34   16   17 1
    35   16   18 1
    36   16   27 1
    37   18   19 1
    38   18   20 1
    39   18   21 1
    40   21   26 ar
    41   21   22 ar
    42   22   23 ar
    43   22   53 1
    44   23   24 ar
    45   23   54 1
    46   24   25 ar
    47   24   55 1
    48   25   26 ar
    49   25   56 1
    50   26   57 1
    51   27   32 ar
    52   27   28 ar
    53   28   29 ar
    54   28   58 1
    55   29   30 ar
    56   29   59 1
    57   30   31 ar
    58   30   60 1
    59   31   32 ar
    60   31   61 1
    61   32   62 1
    62   33   38 ar
    63   33   34 ar
    64   34   35 ar
    65   34   63 1
    66   35   36 ar
    67   35   64 1
    68   36   37 ar
    69   36   39 1
    70   37   38 ar
    71   37   65 1
    72   38   66 1
@<TRIPOS>MOLECULE
CHEMBL246835
   77    81     0     0     0
SMALL
USER_CHARGES

@<TRIPOS>ATOM
      1 C1          0.9627    1.9877    0.3873 C.3       1 <0>        -0.1373
      2 C2          1.0231    0.4650    0.5242 C.3       1 <0>        -0.0378
      3 C3          2.0050    0.0916    1.6365 C.3       1 <0>        -0.1411
      4 C4         -0.3674   -0.0715    0.8702 C.3       1 <0>        -0.1474
      5 C5          1.4849   -0.1384   -0.7771 C.ar      1 <0>        -0.0071
      6 C6          0.6701   -1.0256   -1.4553 C.ar      1 <0>        -0.1413
      7 C7          1.0937   -1.5792   -2.6490 C.ar      1 <0>        -0.0161
      8 C8          2.3319   -1.2452   -3.1648 C.ar      1 <0>        -0.6835
      9 C9          3.1464   -0.3573   -2.4872 C.ar      1 <0>        -0.0137
     10 C10         2.7210    0.1995   -1.2956 C.ar      1 <0>        -0.1324
     11 S1          2.8724   -1.9517   -4.6858 S.o2      1 <0>         2.6869
     12 O1          4.2923   -1.8978   -4.6768 O.2       1 <0>        -0.9519
     13 O2          2.1572   -3.1692   -4.8449 O.2       1 <0>        -0.9525
     14 N1          2.3683   -0.9446   -5.8999 N.pl3     1 <0>        -0.9945
     15 C11         1.0539   -1.1308   -6.5301 C.3       1 <0>         0.1206
     16 C12         0.2406    0.1541   -6.3434 C.3       1 <0>        -0.1155
     17 C13         1.0873    1.3365   -6.7800 C.2       1 <0>        -0.0186
     18 C14         0.5464    2.1993   -7.6396 C.2       1 <0>        -0.2262
     19 C15         1.3100    3.3721   -8.0796 C.2       1 <0>         0.3913
     20 O3          1.0520    3.9534   -9.1128 O.2       1 <0>        -0.4607
     21 C16         2.4402    3.8174   -7.1716 C.3       1 <0>        -0.1874
     22 C17         3.2891    2.5855   -6.8627 C.3       1 <0>        -0.0996
     23 C18         2.4703    1.4796   -6.2206 C.3       1 <0>        -0.0394
     24 C19         3.2229    0.1546   -6.3630 C.3       1 <0>         0.1283
     25 C20         2.3519    1.7800   -4.7251 C.3       1 <0>        -0.0699
     26 C21         1.6725    3.1113   -4.5324 C.ar      1 <0>        -0.1391
     27 C22         2.4292    4.2439   -4.2937 C.ar      1 <0>        -0.0641
     28 C23         1.8098    5.4654   -4.1167 C.ar      1 <0>        -0.2026
     29 C24         0.4250    5.5557   -4.1786 C.ar      1 <0>         0.2236
     30 C25        -0.3321    4.4160   -4.4186 C.ar      1 <0>        -0.1986
     31 C26         0.2941    3.1985   -4.6003 C.ar      1 <0>        -0.0601
     32 N2         -0.2048    6.7895   -3.9995 N.pl3     1 <0>        -0.6266
     33 C27        -1.6697    6.8791   -3.9299 C.3       1 <0>         0.1199
     34 C28        -2.0580    7.6171   -2.6449 C.3       1 <0>        -0.1362
     35 C29        -1.3428    8.9694   -2.6020 C.3       1 <0>        -0.1197
     36 C30         0.1714    8.7475   -2.5928 C.3       1 <0>        -0.1369
     37 C31         0.5853    8.0215   -3.8712 C.3       1 <0>         0.1194
     38 H1          1.9532    2.3699    0.1408 H         1 <0>         0.0588
     39 H2          0.2631    2.2538   -0.4051 H         1 <0>         0.0582
     40 H3          0.6286    2.4242    1.3286 H         1 <0>         0.0612
     41 H4          1.6710    0.5280    2.5778 H         1 <0>         0.0631
     42 H5          2.0481   -0.9932    1.7340 H         1 <0>         0.0583
     43 H6          2.9956    0.4738    1.3900 H         1 <0>         0.0593
     44 H7         -1.0670    0.1946    0.0778 H         1 <0>         0.0603
     45 H8         -0.3244   -1.1562    0.9677 H         1 <0>         0.0606
     46 H9         -0.7014    0.3650    1.8114 H         1 <0>         0.0620
     47 H10        -0.2974   -1.2865   -1.0523 H         1 <0>         0.1358
     48 H11         0.4574   -2.2729   -3.1785 H         1 <0>         0.1374
     49 H12         4.1139   -0.0967   -2.8900 H         1 <0>         0.1373
     50 H13         3.3557    0.8961   -0.7680 H         1 <0>         0.1305
     51 H14         1.1827   -1.3316   -7.5937 H         1 <0>         0.0853
     52 H15         0.5355   -1.9647   -6.0569 H         1 <0>         0.1008
     53 H16        -0.6624    0.1067   -6.9520 H         1 <0>         0.0925
     54 H17        -0.0296    0.2662   -5.2933 H         1 <0>         0.0880
     55 H18        -0.4538    2.0351   -8.0126 H         1 <0>         0.1331
     56 H19         3.0473    4.5686   -7.6767 H         1 <0>         0.0866
     57 H20         2.0333    4.2283   -6.2477 H         1 <0>         0.1273
     58 H21         3.7236    2.2124   -7.7901 H         1 <0>         0.0704
     59 H22         4.0939    2.8702   -6.1849 H         1 <0>         0.0839
     60 H23         4.1316    0.1875   -5.7619 H         1 <0>         0.1024
     61 H24         3.4833   -0.0026   -7.4097 H         1 <0>         0.0847
     62 H25         1.7641    0.9989   -4.2430 H         1 <0>         0.0791
     63 H26         3.3469    1.8123   -4.2811 H         1 <0>         0.0772
     64 H27         3.5058    4.1730   -4.2453 H         1 <0>         0.1212
     65 H28         2.4013    6.3495   -3.9299 H         1 <0>         0.1224
     66 H29        -1.4090    4.4826   -4.4669 H         1 <0>         0.1197
     67 H30        -0.2937    2.3128   -4.7913 H         1 <0>         0.1165
     68 H31        -2.0436    7.4284   -4.7940 H         1 <0>         0.0613
     69 H32        -2.0970    5.8764   -3.9189 H         1 <0>         0.0821
     70 H33        -3.1363    7.7752   -2.6278 H         1 <0>         0.0729
     71 H34        -1.7633    7.0221   -1.7805 H         1 <0>         0.0656
     72 H35        -1.6187    9.5542   -3.4795 H         1 <0>         0.0635
     73 H36        -1.6365    9.5071   -1.7005 H         1 <0>         0.0646
     74 H37         0.6799    9.7101   -2.5387 H         1 <0>         0.0734
     75 H38         0.4451    8.1419   -1.7289 H         1 <0>         0.0656
     76 H39         1.6452    7.7724   -3.8213 H         1 <0>         0.0832
     77 H40         0.3993    8.6661   -4.7303 H         1 <0>         0.0614
@<TRIPOS>BOND
     1    1    2 1
     2    1   38 1
     3    1   39 1
     4    1   40 1
     5    2    3 1
     6    2    4 1
     7    2    5 1
     8    3   41 1
     9    3   42 1
    10    3   43 1
    11    4   44 1
    12    4   45 1
    13    4   46 1
    14    5   10 ar
    15    5    6 ar
    16    6    7 ar
    17    6   47 1
    18    7    8 ar
    19    7   48 1
    20    8    9 ar
    21    8   11 1
    22    9   10 ar
    23    9   49 1
    24   10   50 1
    25   11   12 2
    26   11   13 2
    27   11   14 1
    28   14   24 1
    29   14   15 1
    30   15   16 1
    31   15   51 1
    32   15   52 1
    33   16   17 1
    34   16   53 1
    35   16   54 1
    36   17   23 1
    37   17   18 2
    38   18   19 1
    39   18   55 1
    40   19   20 2
    41   19   21 1
    42   21   22 1
    43   21   56 1
    44   21   57 1
    45   22   23 1
    46   22   58 1
    47   22   59 1
    48   23   24 1
    49   23   25 1
    50   24   60 1
    51   24   61 1
    52   25   26 1
    53   25   62 1
    54   25   63 1
    55   26   31 ar
    56   26   27 ar
    57   27   28 ar
    58   27   64 1
    59   28   29 ar
    60   28   65 1
    61   29   30 ar
    62   29   32 1
    63   30   31 ar
    64   30   66 1
    65   31   67 1
    66   32   37 1
    67   32   33 1
    68   33   34 1
    69   33   68 1
    70   33   69 1
    71   34   35 1
    72   34   70 1
    73   34   71 1
    74   35   36 1
    75   35   72 1
    76   35   73 1
    77   36   37 1
    78   36   74 1
    79   36   75 1
    80   37   76 1
    81   37   77 1
@<TRIPOS>MOLECULE
CHEMBL246835__1
   78    82     0     0     0
SMALL
USER_CHARGES

@<TRIPOS>ATOM
      1 C1          1.0911    2.0416    0.4180 C.3       1 <0>        -0.1354
      2 C2          1.1687    0.5214    0.5727 C.3       1 <0>        -0.0383
      3 C3          2.1820    0.1708    1.6642 C.3       1 <0>        -0.1437
      4 C4         -0.2076   -0.0227    0.9607 C.3       1 <0>        -0.1490
      5 C5          1.6028   -0.0948   -0.7323 C.ar      1 <0>        -0.0083
      6 C6          0.7790   -0.9977   -1.3781 C.ar      1 <0>        -0.1405
      7 C7          1.1772   -1.5629   -2.5752 C.ar      1 <0>        -0.0148
      8 C8          2.3988   -1.2249   -3.1266 C.ar      1 <0>        -0.6850
      9 C9          3.2222   -0.3213   -2.4813 C.ar      1 <0>        -0.0188
     10 C10         2.8222    0.2472   -1.2864 C.ar      1 <0>        -0.1360
     11 S1          2.9068   -1.9462   -4.6518 S.o2      1 <0>         2.6835
     12 O1          4.3260   -1.8799   -4.6797 O.2       1 <0>        -0.9464
     13 O2          2.1988   -3.1719   -4.7772 O.2       1 <0>        -0.9446
     14 N1          2.3630   -0.9593   -5.8653 N.pl3     1 <0>        -0.9969
     15 C11         1.0348   -1.1650   -6.4594 C.3       1 <0>         0.1179
     16 C12         0.2149    0.1151   -6.2682 C.3       1 <0>        -0.1166
     17 C13         1.0396    1.2990   -6.7413 C.2       1 <0>        -0.0268
     18 C14         0.4692    2.1460   -7.5977 C.2       1 <0>        -0.2262
     19 C15         1.2109    3.3196   -8.0718 C.2       1 <0>         0.3840
     20 O3          0.9215    3.8853   -9.1054 O.2       1 <0>        -0.4457
     21 C16         2.3597    3.7863   -7.1987 C.3       1 <0>        -0.1838
     22 C17         3.2272    2.5660   -6.8959 C.3       1 <0>        -0.1107
     23 C18         2.4350    1.4614   -6.2192 C.3       1 <0>        -0.0360
     24 C19         3.1957    0.1413   -6.3639 C.3       1 <0>         0.1271
     25 C20         2.3520    1.7801   -4.7251 C.3       1 <0>        -0.0979
     26 C21         1.6725    3.1113   -4.5324 C.ar      1 <0>        -0.0202
     27 C22         2.4282    4.2473   -4.3102 C.ar      1 <0>        -0.0950
     28 C23         1.8050    5.4684   -4.1335 C.ar      1 <0>        -0.0897
     29 C24         0.4260    5.5537   -4.1793 C.ar      1 <0>        -0.0541
     30 C25        -0.3297    4.4179   -4.4024 C.ar      1 <0>        -0.0826
     31 C26         0.2938    3.1975   -4.5834 C.ar      1 <0>        -0.0954
     32 N2         -0.2043    6.7885   -3.9997 N.4       1 <0>        -0.3171
     33 C27        -1.0862    6.7202   -2.8283 C.3       1 <0>        -0.0064
     34 C28        -1.7165    8.0920   -2.5789 C.3       1 <0>        -0.1456
     35 C29        -2.5301    8.5051   -3.8089 C.3       1 <0>        -0.1394
     36 C30        -1.6165    8.5009   -5.0379 C.3       1 <0>        -0.1455
     37 C31        -0.9898    7.1139   -5.1962 C.3       1 <0>        -0.0079
     38 H1          2.0717    2.4292    0.1416 H         1 <0>         0.0573
     39 H2          0.3693    2.2913   -0.3596 H         1 <0>         0.0524
     40 H3          0.7772    2.4872    1.3619 H         1 <0>         0.0636
     41 H4          1.8680    0.6165    2.6080 H         1 <0>         0.0653
     42 H5          2.2372   -0.9122    1.7743 H         1 <0>         0.0611
     43 H6          3.1625    0.5584    1.3877 H         1 <0>         0.0597
     44 H7         -0.9295    0.2271    0.1831 H         1 <0>         0.0588
     45 H8         -0.1523   -1.1057    1.0709 H         1 <0>         0.0635
     46 H9         -0.5216    0.4230    1.9046 H         1 <0>         0.0641
     47 H10        -0.1755   -1.2618   -0.9473 H         1 <0>         0.1380
     48 H11         0.5339   -2.2689   -3.0794 H         1 <0>         0.1399
     49 H12         4.1768   -0.0574   -2.9119 H         1 <0>         0.1384
     50 H13         3.4638    0.9560   -0.7840 H         1 <0>         0.1311
     51 H14         1.1383   -1.3784   -7.5233 H         1 <0>         0.0891
     52 H15         0.5361   -1.9972   -5.9625 H         1 <0>         0.1055
     53 H16        -0.7027    0.0520   -6.8530 H         1 <0>         0.0974
     54 H17        -0.0295    0.2383   -5.2131 H         1 <0>         0.0870
     55 H18        -0.5386    1.9683   -7.9429 H         1 <0>         0.1393
     56 H19         2.9470    4.5363   -7.7286 H         1 <0>         0.0957
     57 H20         1.9727    4.2056   -6.2700 H         1 <0>         0.1049
     58 H21         3.6414    2.1848   -7.8293 H         1 <0>         0.0832
     59 H22         4.0464    2.8664   -6.2426 H         1 <0>         0.0893
     60 H23         4.1190    0.1898   -5.7866 H         1 <0>         0.1069
     61 H24         3.4308   -0.0271   -7.4149 H         1 <0>         0.0913
     62 H25         1.7789    1.0031   -4.2192 H         1 <0>         0.0982
     63 H26         3.3573    1.8212   -4.3059 H         1 <0>         0.0964
     64 H27         3.5056    4.1807   -4.2744 H         1 <0>         0.1520
     65 H28         2.3954    6.3558   -3.9592 H         1 <0>         0.1476
     66 H29        -1.4070    4.4844   -4.4379 H         1 <0>         0.1422
     67 H30        -0.2965    2.3107   -4.7614 H         1 <0>         0.1464
     68 H31        -1.8723    5.9869   -3.0082 H         1 <0>         0.1268
     69 H32        -0.5064    6.4230   -1.9544 H         1 <0>         0.1301
     70 H33        -2.3723    8.0387   -1.7099 H         1 <0>         0.1135
     71 H34        -0.9312    8.8261   -2.3987 H         1 <0>         0.0885
     72 H35        -3.3469    7.7992   -3.9595 H         1 <0>         0.0819
     73 H36        -2.9347    9.5060   -3.6589 H         1 <0>         0.0958
     74 H37        -2.2008    8.7398   -5.9266 H         1 <0>         0.1141
     75 H38        -0.8291    9.2435   -4.9087 H         1 <0>         0.0888
     76 H39        -0.3389    7.1074   -6.0704 H         1 <0>         0.1306
     77 H40        -1.7780    6.3722   -5.3256 H         1 <0>         0.1272
     78 H41         0.4930    7.5026   -3.8519 H         1 <0>         0.4252
@<TRIPOS>BOND
     1    1    2 1
     2    1   38 1
     3    1   39 1
     4    1   40 1
     5    2    3 1
     6    2    4 1
     7    2    5 1
     8    3   41 1
     9    3   42 1
    10    3   43 1
    11    4   44 1
    12    4   45 1
    13    4   46 1
    14    5   10 ar
    15    5    6 ar
    16    6    7 ar
    17    6   47 1
    18    7    8 ar
    19    7   48 1
    20    8    9 ar
    21    8   11 1
    22    9   10 ar
    23    9   49 1
    24   10   50 1
    25   11   12 2
    26   11   13 2
    27   11   14 1
    28   14   24 1
    29   14   15 1
    30   15   16 1
    31   15   51 1
    32   15   52 1
    33   16   17 1
    34   16   53 1
    35   16   54 1
    36   17   23 1
    37   17   18 2
    38   18   19 1
    39   18   55 1
    40   19   20 2
    41   19   21 1
    42   21   22 1
    43   21   56 1
    44   21   57 1
    45   22   23 1
    46   22   58 1
    47   22   59 1
    48   23   24 1
    49   23   25 1
    50   24   60 1
    51   24   61 1
    52   25   26 1
    53   25   62 1
    54   25   63 1
    55   26   31 ar
    56   26   27 ar
    57   27   28 ar
    58   27   64 1
    59   28   29 ar
    60   28   65 1
    61   29   30 ar
    62   29   32 1
    63   30   31 ar
    64   30   66 1
    65   31   67 1
    66   32   37 1
    67   32   33 1
    68   32   78 1
    69   33   34 1
    70   33   68 1
    71   33   69 1
    72   34   35 1
    73   34   70 1
    74   34   71 1
    75   35   36 1
    76   35   72 1
    77   35   73 1
    78   36   37 1
    79   36   74 1
    80   36   75 1
    81   37   76 1
    82   37   77 1
@<TRIPOS>MOLECULE
CHEMBL246835__2
   77    81     0     0     0
SMALL
USER_CHARGES

@<TRIPOS>ATOM
      1 C1          0.9018    2.2027    0.2933 C.3       1 <0>        -0.1401
      2 C2          1.1069    0.6994    0.4910 C.3       1 <0>        -0.0391
      3 C3          2.0729    0.4651    1.6541 C.3       1 <0>        -0.1412
      4 C4         -0.2370    0.0380    0.8030 C.3       1 <0>        -0.1480
      5 C5          1.6812    0.1010   -0.7673 C.ar      1 <0>        -0.0110
      6 C6          0.9879   -0.8864   -1.4419 C.ar      1 <0>        -0.1420
      7 C7          1.5146   -1.4353   -2.5961 C.ar      1 <0>        -0.0174
      8 C8          2.7345   -0.9965   -3.0759 C.ar      1 <0>        -0.6844
      9 C9          3.4274   -0.0084   -2.4018 C.ar      1 <0>        -0.0173
     10 C10         2.8986    0.5435   -1.2499 C.ar      1 <0>        -0.1364
     11 S1          3.4064   -1.6969   -4.5464 S.o2      1 <0>         2.6874
     12 O1          4.8124   -1.5003   -4.4843 O.2       1 <0>        -0.9491
     13 O2          2.8228   -2.9850   -4.6862 O.2       1 <0>        -0.9519
     14 N1          2.8571   -0.7881   -5.8170 N.pl3     1 <0>        -0.9963
     15 C11         1.5957   -1.1271   -6.4903 C.3       1 <0>         0.1207
     16 C12         1.8920   -1.3909   -7.9702 C.3       1 <0>        -0.1118
     17 C13         2.7126   -0.2368   -8.5178 C.2       1 <0>        -0.0201
     18 C14         2.2921    0.3407   -9.6429 C.2       1 <0>        -0.2274
     19 C15         3.0572    1.4463  -10.2298 C.2       1 <0>         0.3917
     20 O3          2.5492    2.2440  -10.9898 O.2       1 <0>        -0.4614
     21 C16         4.5182    1.5371   -9.8336 C.3       1 <0>        -0.1866
     22 C17         4.5831    1.4582   -8.3094 C.3       1 <0>        -0.0990
     23 C18         3.9475    0.1846   -7.7805 C.3       1 <0>        -0.0347
     24 C19         3.6175    0.3750   -6.2885 C.3       1 <0>         0.1280
     25 C20         4.9762   -0.9427   -7.8882 C.3       1 <0>        -0.0644
     26 C21         5.4015   -1.0990   -9.3255 C.ar      1 <0>        -0.1428
     27 C22         4.5936   -1.7856  -10.2133 C.ar      1 <0>        -0.0631
     28 C23         4.9803   -1.9306  -11.5311 C.ar      1 <0>        -0.1987
     29 C24         6.1824   -1.3859  -11.9645 C.ar      1 <0>         0.2220
     30 C25         6.9916   -0.6968  -11.0700 C.ar      1 <0>        -0.2019
     31 C26         6.5962   -0.5506   -9.7549 C.ar      1 <0>        -0.0642
     32 N2          6.5769   -1.5311  -13.2965 N.pl3     1 <0>        -0.6271
     33 C27         7.9017   -1.0751  -13.7389 C.3       1 <0>         0.1199
     34 C28         8.6132   -2.2356  -14.4416 C.3       1 <0>        -0.1370
     35 C29         7.7234   -2.7677  -15.5673 C.3       1 <0>        -0.1195
     36 C30         6.4113   -3.2911  -14.9785 C.3       1 <0>        -0.1373
     37 C31         5.6772   -2.1481  -14.2806 C.3       1 <0>         0.1194
     38 H1          1.8593    2.6739    0.0710 H         1 <0>         0.0593
     39 H2          0.2137    2.3696   -0.5354 H         1 <0>         0.0581
     40 H3          0.4865    2.6355    1.2034 H         1 <0>         0.0639
     41 H4          1.6576    0.8979    2.5642 H         1 <0>         0.0641
     42 H5          2.2190   -0.6058    1.7949 H         1 <0>         0.0587
     43 H6          3.0304    0.9363    1.4318 H         1 <0>         0.0596
     44 H7         -0.9252    0.2050   -0.0256 H         1 <0>         0.0608
     45 H8         -0.0909   -1.0329    0.9438 H         1 <0>         0.0611
     46 H9         -0.6523    0.4708    1.7131 H         1 <0>         0.0633
     47 H10         0.0348   -1.2293   -1.0671 H         1 <0>         0.1377
     48 H11         0.9732   -2.2073   -3.1228 H         1 <0>         0.1387
     49 H12         4.3806    0.3342   -2.7764 H         1 <0>         0.1393
     50 H13         3.4382    1.3181   -0.7253 H         1 <0>         0.1324
     51 H14         1.1674   -2.0213   -6.0373 H         1 <0>         0.1005
     52 H15         0.8967   -0.2957   -6.3991 H         1 <0>         0.0790
     53 H16         2.4545   -2.3191   -8.0704 H         1 <0>         0.0915
     54 H17         0.9553   -1.4676   -8.5223 H         1 <0>         0.0929
     55 H18         1.3885   -0.0053  -10.1226 H         1 <0>         0.1337
     56 H19         5.0733    0.7076  -10.2716 H         1 <0>         0.1271
     57 H20         4.9363    2.4846  -10.1737 H         1 <0>         0.0868
     58 H21         5.6267    1.4902   -7.9966 H         1 <0>         0.0851
     59 H22         4.0613    2.3169   -7.8872 H         1 <0>         0.0689
     60 H23         3.0211    1.2778   -6.1568 H         1 <0>         0.0790
     61 H24         4.5419    0.4616   -5.7174 H         1 <0>         0.1036
     62 H25         5.8453   -0.7013   -7.2763 H         1 <0>         0.0859
     63 H26         4.5323   -1.8744   -7.5374 H         1 <0>         0.0704
     64 H27         3.6593   -2.2092   -9.8756 H         1 <0>         0.1185
     65 H28         4.3491   -2.4672  -12.2239 H         1 <0>         0.1212
     66 H29         7.9270   -0.2723  -11.4037 H         1 <0>         0.1229
     67 H30         7.2227   -0.0112   -9.0600 H         1 <0>         0.1230
     68 H31         7.7886   -0.2420  -14.4326 H         1 <0>         0.0613
     69 H32         8.4860   -0.7574  -12.8753 H         1 <0>         0.0831
     70 H33         9.5570   -1.8845  -14.8589 H         1 <0>         0.0731
     71 H34         8.8066   -3.0323  -13.7232 H         1 <0>         0.0662
     72 H35         7.5101   -1.9641  -16.2722 H         1 <0>         0.0632
     73 H36         8.2378   -3.5774  -16.0848 H         1 <0>         0.0645
     74 H37         5.7878   -3.6912  -15.7781 H         1 <0>         0.0732
     75 H38         6.6254   -4.0778  -14.2551 H         1 <0>         0.0660
     76 H39         4.7942   -2.5382  -13.7743 H         1 <0>         0.0828
     77 H40         5.3786   -1.4045  -15.0195 H         1 <0>         0.0612
@<TRIPOS>BOND
     1    1    2 1
     2    1   38 1
     3    1   39 1
     4    1   40 1
     5    2    3 1
     6    2    4 1
     7    2    5 1
     8    3   41 1
     9    3   42 1
    10    3   43 1
    11    4   44 1
    12    4   45 1
    13    4   46 1
    14    5   10 ar
    15    5    6 ar
    16    6    7 ar
    17    6   47 1
    18    7    8 ar
    19    7   48 1
    20    8    9 ar
    21    8   11 1
    22    9   10 ar
    23    9   49 1
    24   10   50 1
    25   11   12 2
    26   11   13 2
    27   11   14 1
    28   14   24 1
    29   14   15 1
    30   15   16 1
    31   15   51 1
    32   15   52 1
    33   16   17 1
    34   16   53 1
    35   16   54 1
    36   17   23 1
    37   17   18 2
    38   18   19 1
    39   18   55 1
    40   19   20 2
    41   19   21 1
    42   21   22 1
    43   21   56 1
    44   21   57 1
    45   22   23 1
    46   22   58 1
    47   22   59 1
    48   23   24 1
    49   23   25 1
    50   24   60 1
    51   24   61 1
    52   25   26 1
    53   25   62 1
    54   25   63 1
    55   26   31 ar
    56   26   27 ar
    57   27   28 ar
    58   27   64 1
    59   28   29 ar
    60   28   65 1
    61   29   30 ar
    62   29   32 1
    63   30   31 ar
    64   30   66 1
    65   31   67 1
    66   32   37 1
    67   32   33 1
    68   33   34 1
    69   33   68 1
    70   33   69 1
    71   34   35 1
    72   34   70 1
    73   34   71 1
    74   35   36 1
    75   35   72 1
    76   35   73 1
    77   36   37 1
    78   36   74 1
    79   36   75 1
    80   37   76 1
    81   37   77 1
@<TRIPOS>MOLECULE
CHEMBL246835__3
   78    82     0     0     0
SMALL
USER_CHARGES

@<TRIPOS>ATOM
      1 C1          0.9464    2.2371    0.3021 C.3       1 <0>        -0.1404
      2 C2          1.1319    0.7308    0.4962 C.3       1 <0>        -0.0404
      3 C3          2.0951    0.4812    1.6584 C.3       1 <0>        -0.1420
      4 C4         -0.2205    0.0864    0.8073 C.3       1 <0>        -0.1490
      5 C5          1.6978    0.1278   -0.7636 C.ar      1 <0>        -0.0055
      6 C6          0.9913   -0.8489   -1.4402 C.ar      1 <0>        -0.1405
      7 C7          1.5104   -1.4020   -2.5958 C.ar      1 <0>        -0.0172
      8 C8          2.7357   -0.9781   -3.0751 C.ar      1 <0>        -0.6873
      9 C9          3.4418   -0.0007   -2.3990 C.ar      1 <0>        -0.0183
     10 C10         2.9207    0.5555   -1.2457 C.ar      1 <0>        -0.1354
     11 S1          3.3979   -1.6840   -4.5475 S.o2      1 <0>         2.6878
     12 O1          4.8063   -1.5059   -4.4855 O.2       1 <0>        -0.9514
     13 O2          2.7974   -2.9639   -4.6900 O.2       1 <0>        -0.9496
     14 N1          2.8601   -0.7650   -5.8159 N.pl3     1 <0>        -0.9996
     15 C11         1.5941   -1.0860   -6.4893 C.3       1 <0>         0.1179
     16 C12         1.8863   -1.3503   -7.9700 C.3       1 <0>        -0.1129
     17 C13         2.7218   -0.2057   -8.5153 C.2       1 <0>        -0.0279
     18 C14         2.3085    0.3798   -9.6389 C.2       1 <0>        -0.2274
     19 C15         3.0878    1.4766  -10.2236 C.2       1 <0>         0.3844
     20 O3          2.5900    2.2826  -10.9816 O.2       1 <0>        -0.4466
     21 C16         4.5501    1.5474   -9.8277 C.3       1 <0>        -0.1834
     22 C17         4.6144    1.4641   -8.3038 C.3       1 <0>        -0.1101
     23 C18         3.9624    0.1978   -7.7775 C.3       1 <0>        -0.0322
     24 C19         3.6355    0.3890   -6.2850 C.3       1 <0>         0.1271
     25 C20         4.9762   -0.9428   -7.8882 C.3       1 <0>        -0.0912
     26 C21         5.4015   -1.0990   -9.3255 C.ar      1 <0>        -0.0234
     27 C22         4.5885   -1.7729  -10.2176 C.ar      1 <0>        -0.0973
     28 C23         4.9786   -1.9162  -11.5359 C.ar      1 <0>        -0.0838
     29 C24         6.1816   -1.3852  -11.9624 C.ar      1 <0>        -0.0551
     30 C25         6.9942   -0.7106  -11.0705 C.ar      1 <0>        -0.0885
     31 C26         6.6021   -0.5635   -9.7531 C.ar      1 <0>        -0.0949
     32 N2          6.5766   -1.5310  -13.2955 N.4       1 <0>        -0.3172
     33 C27         7.8441   -2.2691  -13.3508 C.3       1 <0>        -0.0068
     34 C28         8.2398   -2.5020  -14.8105 C.3       1 <0>        -0.1457
     35 C29         8.4035   -1.1502  -15.5112 C.3       1 <0>        -0.1393
     36 C30         7.0989   -0.3585  -15.3828 C.3       1 <0>        -0.1457
     37 C31         6.7455   -0.2050  -13.9019 C.3       1 <0>        -0.0078
     38 H1          1.9099    2.6962    0.0805 H         1 <0>         0.0591
     39 H2          0.2602    2.4149   -0.5259 H         1 <0>         0.0579
     40 H3          0.5371    2.6732    1.2133 H         1 <0>         0.0660
     41 H4          1.6858    0.9174    2.5697 H         1 <0>         0.0662
     42 H5          2.2273   -0.5919    1.7968 H         1 <0>         0.0591
     43 H6          3.0586    0.9403    1.4368 H         1 <0>         0.0595
     44 H7         -0.9067    0.2642   -0.0207 H         1 <0>         0.0608
     45 H8         -0.0884   -0.9867    0.9456 H         1 <0>         0.0615
     46 H9         -0.6298    0.5225    1.7185 H         1 <0>         0.0653
     47 H10         0.0340   -1.1801   -1.0658 H         1 <0>         0.1397
     48 H11         0.9588   -2.1656   -3.1241 H         1 <0>         0.1388
     49 H12         4.3993    0.3302   -2.7733 H         1 <0>         0.1383
     50 H13         3.4706    1.3217   -0.7195 H         1 <0>         0.1339
     51 H14         1.1543   -1.9755   -6.0382 H         1 <0>         0.1051
     52 H15         0.9061   -0.2457   -6.3960 H         1 <0>         0.0827
     53 H16         2.4366   -2.2856   -8.0725 H         1 <0>         0.0905
     54 H17         0.9485   -1.4134   -8.5219 H         1 <0>         0.0976
     55 H18         1.4002    0.0467  -10.1190 H         1 <0>         0.1399
     56 H19         5.0941    0.7117  -10.2679 H         1 <0>         0.1048
     57 H20         4.9803    2.4900  -10.1659 H         1 <0>         0.0954
     58 H21         5.6585    1.4817   -7.9913 H         1 <0>         0.0899
     59 H22         4.1041    2.3286   -7.8794 H         1 <0>         0.0816
     60 H23         3.0510    1.2992   -6.1509 H         1 <0>         0.0854
     61 H24         4.5611    0.4622   -5.7140 H         1 <0>         0.1078
     62 H25         5.8475   -0.7152   -7.2742 H         1 <0>         0.1041
     63 H26         4.5195   -1.8698   -7.5417 H         1 <0>         0.0903
     64 H27         3.6486   -2.1877   -9.8844 H         1 <0>         0.1483
     65 H28         4.3437   -2.4433  -12.2327 H         1 <0>         0.1463
     66 H29         7.9342   -0.2960  -11.4036 H         1 <0>         0.1447
     67 H30         7.2352   -0.0332   -9.0572 H         1 <0>         0.1527
     68 H31         8.6223   -1.6918  -12.8515 H         1 <0>         0.1278
     69 H32         7.7269   -3.2295  -12.8488 H         1 <0>         0.1306
     70 H33         9.1820   -3.0486  -14.8494 H         1 <0>         0.1136
     71 H34         7.4623   -3.0795  -15.3106 H         1 <0>         0.0881
     72 H35         9.2154   -0.5932  -15.0437 H         1 <0>         0.0821
     73 H36         8.6299   -1.3111  -16.5652 H         1 <0>         0.0953
     74 H37         7.2256    0.6270  -15.8308 H         1 <0>         0.1138
     75 H38         6.2977   -0.8915  -15.8949 H         1 <0>         0.0883
     76 H39         5.8172    0.3584  -13.8069 H         1 <0>         0.1303
     77 H40         7.5471    0.3283  -13.3909 H         1 <0>         0.1281
     78 H41         5.8691   -2.0431  -13.8007 H         1 <0>         0.4251
@<TRIPOS>BOND
     1    1    2 1
     2    1   38 1
     3    1   39 1
     4    1   40 1
     5    2    3 1
     6    2    4 1
     7    2    5 1
     8    3   41 1
     9    3   42 1
    10    3   43 1
    11    4   44 1
    12    4   45 1
    13    4   46 1
    14    5   10 ar
    15    5    6 ar
    16    6    7 ar
    17    6   47 1
    18    7    8 ar
    19    7   48 1
    20    8    9 ar
    21    8   11 1
    22    9   10 ar
    23    9   49 1
    24   10   50 1
    25   11   12 2
    26   11   13 2
    27   11   14 1
    28   14   24 1
    29   14   15 1
    30   15   16 1
    31   15   51 1
    32   15   52 1
    33   16   17 1
    34   16   53 1
    35   16   54 1
    36   17   23 1
    37   17   18 2
    38   18   19 1
    39   18   55 1
    40   19   20 2
    41   19   21 1
    42   21   22 1
    43   21   56 1
    44   21   57 1
    45   22   23 1
    46   22   58 1
    47   22   59 1
    48   23   24 1
    49   23   25 1
    50   24   60 1
    51   24   61 1
    52   25   26 1
    53   25   62 1
    54   25   63 1
    55   26   31 ar
    56   26   27 ar
    57   27   28 ar
    58   27   64 1
    59   28   29 ar
    60   28   65 1
    61   29   30 ar
    62   29   32 1
    63   30   31 ar
    64   30   66 1
    65   31   67 1
    66   32   37 1
    67   32   33 1
    68   32   78 1
    69   33   34 1
    70   33   68 1
    71   33   69 1
    72   34   35 1
    73   34   70 1
    74   34   71 1
    75   35   36 1
    76   35   72 1
    77   35   73 1
    78   36   37 1
    79   36   74 1
    80   36   75 1
    81   37   76 1
    82   37   77 1
@<TRIPOS>MOLECULE
CHEMBL70381
   50    52     0     0     0
SMALL
USER_CHARGES

@<TRIPOS>ATOM
      1 C1         -0.0184    1.5028    0.0103 C.3       1 <0>        -0.0768
      2 C2          0.0021   -0.0041    0.0020 C.ar      1 <0>        -0.1491
      3 C3          0.0058   -0.6930   -1.2029 C.ar      1 <0>         0.2869
      4 C4          0.0246   -2.0824   -1.2070 C.ar      1 <0>        -0.2572
      5 C5          0.0396   -2.7781   -0.0132 C.ar      1 <0>        -0.0721
      6 C6          0.0355   -2.0956    1.1877 C.ar      1 <0>        -0.2209
      7 C7          0.0230   -0.7057    1.1989 C.ar      1 <0>         0.1877
      8 N1          0.0256   -0.0163    2.4135 N.pl3     1 <0>        -0.6494
      9 C8          1.2955    0.3621    3.0383 C.3       1 <0>         0.1760
     10 C9          1.7078    1.7273    2.5513 C.ar      1 <0>        -0.0961
     11 C10         2.4887    1.8499    1.4172 C.ar      1 <0>        -0.0817
     12 C11         2.8669    3.1022    0.9705 C.ar      1 <0>        -0.1237
     13 C12         2.4638    4.2320    1.6576 C.ar      1 <0>        -0.1233
     14 C13         1.6821    4.1095    2.7911 C.ar      1 <0>        -0.1302
     15 C14         1.3004    2.8573    3.2353 C.ar      1 <0>        -0.1086
     16 C15        -1.2416    0.3285    3.0628 C.3       1 <0>         0.1850
     17 C16        -1.6529   -0.7888    3.9867 C.ar      1 <0>        -0.1189
     18 C17        -2.5993   -1.7100    3.5787 C.ar      1 <0>        -0.0590
     19 C18        -2.9771   -2.7349    4.4253 C.ar      1 <0>        -0.1196
     20 C19        -2.4081   -2.8405    5.6823 C.ar      1 <0>        -0.0134
     21 C20        -1.4607   -1.9200    6.0919 C.ar      1 <0>        -0.1521
     22 C21        -1.0787   -0.8960    5.2419 C.ar      1 <0>         0.1206
     23 F1         -0.1499    0.0011    5.6391 F         1 <0>        -0.1302
     24 Cl1        -2.8838   -4.1280    6.7452 Cl        1 <0>        -0.0677
     25 N2         -0.0099    0.0095   -2.4099 N.2       1 <0>        -1.0921
     26 S1         -0.0054   -0.8133   -3.8470 S.o2      1 <0>         2.5224
     27 O1          1.2388   -1.4995   -3.8681 O.2       1 <0>        -1.0322
     28 O2         -1.2302   -1.5338   -3.8561 O.2       1 <0>        -1.0328
     29 C22        -0.0296    0.4762   -5.1226 C.3       1 <0>        -0.6376
     30 H1          1.0042    1.8801    0.0026 H         1 <0>         0.0579
     31 H2         -0.5455    1.8639   -0.8728 H         1 <0>         0.0583
     32 H3         -0.5286    1.8543    0.9071 H         1 <0>         0.0358
     33 H4          0.0271   -2.6190   -2.1442 H         1 <0>         0.0976
     34 H5          0.0542   -3.8580   -0.0192 H         1 <0>         0.0967
     35 H6          0.0469   -2.6424    2.1189 H         1 <0>         0.0955
     36 H7          1.1754    0.3837    4.1214 H         1 <0>         0.0766
     37 H8          2.0623   -0.3654    2.7722 H         1 <0>         0.0690
     38 H9          2.8037    0.9673    0.8805 H         1 <0>         0.1207
     39 H10         3.4776    3.1980    0.0849 H         1 <0>         0.1169
     40 H11         2.7598    5.2104    1.3089 H         1 <0>         0.1131
     41 H12         1.3674    4.9921    3.3280 H         1 <0>         0.1129
     42 H13         0.6865    2.7618    4.1188 H         1 <0>         0.1133
     43 H14        -1.1179    1.2471    3.6363 H         1 <0>         0.0729
     44 H15        -2.0106    0.4744    2.3043 H         1 <0>         0.0808
     45 H16        -3.0440   -1.6285    2.5979 H         1 <0>         0.1436
     46 H17        -3.7172   -3.4537    4.1058 H         1 <0>         0.1373
     47 H18        -1.0164   -2.0021    7.0729 H         1 <0>         0.1405
     48 H19         0.8523    1.1081   -5.0171 H         1 <0>         0.1139
     49 H20        -0.0279    0.0118   -6.1088 H         1 <0>         0.0988
     50 H21        -0.9275    1.0834   -5.0085 H         1 <0>         0.1139
@<TRIPOS>BOND
     1    1    2 1
     2    1   30 1
     3    1   31 1
     4    1   32 1
     5    2    7 ar
     6    2    3 ar
     7    3    4 ar
     8    3   25 1
     9    4    5 ar
    10    4   33 1
    11    5    6 ar
    12    5   34 1
    13    6    7 ar
    14    6   35 1
    15    7    8 1
    16    8    9 1
    17    8   16 1
    18    9   10 1
    19    9   36 1
    20    9   37 1
    21   10   15 ar
    22   10   11 ar
    23   11   12 ar
    24   11   38 1
    25   12   13 ar
    26   12   39 1
    27   13   14 ar
    28   13   40 1
    29   14   15 ar
    30   14   41 1
    31   15   42 1
    32   16   17 1
    33   16   43 1
    34   16   44 1
    35   17   22 ar
    36   17   18 ar
    37   18   19 ar
    38   18   45 1
    39   19   20 ar
    40   19   46 1
    41   20   21 ar
    42   20   24 1
    43   21   22 ar
    44   21   47 1
    45   22   23 1
    46   25   26 1
    47   26   27 2
    48   26   28 2
    49   26   29 1
    50   29   48 1
    51   29   49 1
    52   29   50 1
@<TRIPOS>MOLECULE
CHEMBL70381__1
   51    53     0     0     0
SMALL
USER_CHARGES

@<TRIPOS>ATOM
      1 C1         -0.2006    1.6960   -0.1281 C.3       1 <0>        -0.1218
      2 C2         -0.2688    0.1945   -0.0190 C.ar      1 <0>        -0.1020
      3 C3         -0.1711   -0.5908   -1.1592 C.ar      1 <0>         0.1504
      4 C4         -0.2344   -1.9750   -1.0551 C.ar      1 <0>        -0.1730
      5 C5         -0.3943   -2.5698    0.1818 C.ar      1 <0>        -0.0900
      6 C6         -0.4923   -1.7911    1.3185 C.ar      1 <0>        -0.1302
      7 C7         -0.4236   -0.4062    1.2222 C.ar      1 <0>         0.1859
      8 N1         -0.5161    0.3802    2.3727 N.pl3     1 <0>        -0.6570
      9 C8          0.6961    0.7446    3.1102 C.3       1 <0>         0.1724
     10 C9          1.2405    2.0426    2.5718 C.ar      1 <0>        -0.1026
     11 C10         2.1494    2.0318    1.5303 C.ar      1 <0>        -0.0989
     12 C11         2.6488    3.2224    1.0364 C.ar      1 <0>        -0.1258
     13 C12         2.2390    4.4239    1.5837 C.ar      1 <0>        -0.1170
     14 C13         1.3294    4.4347    2.6246 C.ar      1 <0>        -0.1217
     15 C14         0.8268    3.2442    3.1157 C.ar      1 <0>        -0.1049
     16 C15        -1.8253    0.8405    2.8421 C.3       1 <0>         0.1839
     17 C16        -2.4030   -0.1747    3.7944 C.ar      1 <0>        -0.1327
     18 C17        -3.3507   -1.0777    3.3505 C.ar      1 <0>        -0.0649
     19 C18        -3.8810   -2.0090    4.2231 C.ar      1 <0>        -0.1192
     20 C19        -3.4634   -2.0389    5.5421 C.ar      1 <0>        -0.0080
     21 C20        -2.5150   -1.1364    5.9877 C.ar      1 <0>        -0.1480
     22 C21        -1.9802   -0.2065    5.1123 C.ar      1 <0>         0.1251
     23 F1         -1.0502    0.6725    5.5452 F         1 <0>        -0.1283
     24 Cl1        -4.1306   -3.2088    6.6375 Cl        1 <0>        -0.0550
     25 N2         -0.0099    0.0095   -2.4099 N.pl3     1 <0>        -1.0524
     26 S1         -0.7247   -0.6570   -3.7467 S.o2      1 <0>         2.6073
     27 O1         -0.4328    0.2475   -4.8030 O.2       1 <0>        -0.9509
     28 O2         -0.2460   -1.9944   -3.7851 O.2       1 <0>        -0.9466
     29 C22        -2.5017   -0.6398   -3.3825 C.3       1 <0>        -0.6677
     30 H1          0.8370    2.0195   -0.0456 H         1 <0>         0.0852
     31 H2         -0.6033    2.0089   -1.0914 H         1 <0>         0.0562
     32 H3         -0.7863    2.1455    0.6739 H         1 <0>         0.0729
     33 H4         -0.1588   -2.5867   -1.9420 H         1 <0>         0.1603
     34 H5         -0.4432   -3.6458    0.2600 H         1 <0>         0.1298
     35 H6         -0.6176   -2.2591    2.2838 H         1 <0>         0.1230
     36 H7          0.4570    0.8616    4.1672 H         1 <0>         0.0870
     37 H8          1.4434   -0.0399    2.9914 H         1 <0>         0.0728
     38 H9          2.4695    1.0932    1.1027 H         1 <0>         0.1174
     39 H10         3.3594    3.2140    0.2231 H         1 <0>         0.1197
     40 H11         2.6297    5.3540    1.1983 H         1 <0>         0.1193
     41 H12         1.0095    5.3733    3.0525 H         1 <0>         0.1196
     42 H13         0.1134    3.2528    3.9265 H         1 <0>         0.1181
     43 H14        -1.7123    1.7960    3.3543 H         1 <0>         0.0821
     44 H15        -2.4946    0.9618    1.9904 H         1 <0>         0.0810
     45 H16        -3.6772   -1.0552    2.3213 H         1 <0>         0.1399
     46 H17        -4.6219   -2.7137    3.8755 H         1 <0>         0.1402
     47 H18        -2.1889   -1.1595    7.0171 H         1 <0>         0.1453
     48 H19         0.5209    0.8170   -2.4955 H         1 <0>         0.4268
     49 H20        -2.8293    0.3870   -3.2198 H         1 <0>         0.1311
     50 H21        -3.0490   -1.0669   -4.2228 H         1 <0>         0.1345
     51 H22        -2.6946   -1.2290   -2.4860 H         1 <0>         0.1313
@<TRIPOS>BOND
     1    1    2 1
     2    1   30 1
     3    1   31 1
     4    1   32 1
     5    2    7 ar
     6    2    3 ar
     7    3    4 ar
     8    3   25 1
     9    4    5 ar
    10    4   33 1
    11    5    6 ar
    12    5   34 1
    13    6    7 ar
    14    6   35 1
    15    7    8 1
    16    8    9 1
    17    8   16 1
    18    9   10 1
    19    9   36 1
    20    9   37 1
    21   10   15 ar
    22   10   11 ar
    23   11   12 ar
    24   11   38 1
    25   12   13 ar
    26   12   39 1
    27   13   14 ar
    28   13   40 1
    29   14   15 ar
    30   14   41 1
    31   15   42 1
    32   16   17 1
    33   16   43 1
    34   16   44 1
    35   17   22 ar
    36   17   18 ar
    37   18   19 ar
    38   18   45 1
    39   19   20 ar
    40   19   46 1
    41   20   21 ar
    42   20   24 1
    43   21   22 ar
    44   21   47 1
    45   22   23 1
    46   25   26 1
    47   25   48 1
    48   26   27 2
    49   26   28 2
    50   26   29 1
    51   29   49 1
    52   29   50 1
    53   29   51 1
@<TRIPOS>MOLECULE
CHEMBL232390
   62    66     0     0     0
SMALL
USER_CHARGES

@<TRIPOS>ATOM
      1 C1          0.2653    1.7501    1.5386 C.3       1 <0>        -0.1228
      2 C2          0.5584    0.3151    1.1605 C.2       1 <0>        -0.0926
      3 C3          1.1086    0.1054   -0.0073 C.2       1 <0>        -0.1469
      4 C4          1.5363   -1.2494   -0.4865 C.3       1 <0>         0.1457
      5 N1          1.7141   -2.1553    0.6584 N.3       1 <0>        -0.6662
      6 C5          0.5256   -2.1754    1.4934 C.3       1 <0>         0.1202
      7 C6          0.2541   -0.7886    2.0977 C.3       1 <0>         0.0090
      8 C7         -1.0953   -0.8723    2.7232 C.2       1 <0>        -0.0980
      9 C8         -1.2805   -1.9617    3.5737 C.2       1 <0>        -0.0166
     10 C9         -0.2144   -2.9653    3.6788 C.2       1 <0>        -0.1174
     11 C10         0.6626   -3.1113    2.6725 C.2       1 <0>        -0.1243
     12 C11        -2.5359   -2.0312    4.3365 C.ar      1 <0>        -0.1173
     13 C12        -3.4075   -0.9258    4.2944 C.ar      1 <0>         0.1312
     14 C13        -4.5846   -0.9390    5.0202 C.ar      1 <0>        -0.1283
     15 C14        -4.9189   -2.0437    5.7810 C.ar      1 <0>        -0.0890
     16 C15        -4.0805   -3.1457    5.8172 C.ar      1 <0>         0.0583
     17 C16        -2.8916   -3.1483    5.0936 C.ar      1 <0>         0.1239
     18 O1         -2.1051   -4.2560    5.1288 O.3       1 <0>        -0.3200
     19 C17        -2.4304   -5.3116    4.2222 C.3       1 <0>         0.0370
     20 O2         -4.4183   -4.2331    6.5632 O.3       1 <0>        -0.4810
     21 O3         -3.0955    0.1462    3.5191 O.3       1 <0>        -0.2332
     22 C18        -2.2126   -0.0687    2.5051 C.2       1 <0>         0.0996
     23 C19        -2.5202    0.4346    1.2805 C.2       1 <0>        -0.1178
     24 C20        -3.6213    1.3879    1.1366 C.ar      1 <0>        -0.0172
     25 C21        -3.9177    2.2850    2.1704 C.ar      1 <0>        -0.0732
     26 C22        -4.9548    3.1793    2.0289 C.ar      1 <0>        -0.1322
     27 C23        -5.7140    3.2011    0.8654 C.ar      1 <0>         0.0954
     28 C24        -5.4404    2.3264   -0.1671 C.ar      1 <0>        -0.1200
     29 C25        -4.3903    1.4144   -0.0494 C.ar      1 <0>        -0.0324
     30 C26        -4.0900    0.4838   -1.1487 C.2       1 <0>         0.1452
     31 N2         -3.1564   -0.4042   -1.0091 N.2       1 <0>        -0.3185
     32 O4         -2.9464   -1.3753   -2.0181 O.3       1 <0>        -0.4093
     33 F1         -6.7284    4.0851    0.7437 F         1 <0>        -0.1354
     34 C27         2.8756   -1.1123   -1.2184 C.3       1 <0>        -0.1354
     35 C28         0.4981   -1.8090   -1.4540 C.3       1 <0>        -0.1768
     36 H1          1.1352    2.1799    2.0351 H         1 <0>         0.0680
     37 H2          0.0396    2.3237    0.6396 H         1 <0>         0.0659
     38 H3         -0.5902    1.7805    2.2133 H         1 <0>         0.0652
     39 H4          1.2618    0.9506   -0.6567 H         1 <0>         0.1137
     40 H5          1.9735   -3.0806    0.3517 H         1 <0>         0.3502
     41 H6         -0.3457   -2.4878    0.9256 H         1 <0>         0.0521
     42 H7          0.9754   -0.6886    2.9415 H         1 <0>         0.0959
     43 H8         -0.1083   -3.5732    4.5647 H         1 <0>         0.1398
     44 H9          1.4333   -3.8584    2.6956 H         1 <0>         0.1344
     45 H10        -5.2461   -0.0852    4.9946 H         1 <0>         0.1463
     46 H11        -5.8371   -2.0466    6.3483 H         1 <0>         0.1469
     47 H12        -3.4615   -5.6253    4.3847 H         1 <0>         0.0443
     48 H13        -2.3151   -4.9588    3.1974 H         1 <0>         0.0478
     49 H14        -1.7625   -6.1560    4.3931 H         1 <0>         0.1002
     50 H15        -4.9392   -4.8922    6.0843 H         1 <0>         0.3851
     51 H16        -1.9520    0.1309    0.4136 H         1 <0>         0.1731
     52 H17        -3.3332    2.2751    3.0785 H         1 <0>         0.1433
     53 H18        -5.1802    3.8691    2.8287 H         1 <0>         0.1410
     54 H19        -6.0363    2.3506   -1.0675 H         1 <0>         0.1443
     55 H20        -4.6474    0.5408   -2.0719 H         1 <0>         0.1302
     56 H21        -2.2303   -1.9955   -1.8241 H         1 <0>         0.4006
     57 H22         3.6231   -0.7085   -0.5356 H         1 <0>         0.0659
     58 H23         3.1981   -2.0915   -1.5723 H         1 <0>         0.0569
     59 H24         2.7582   -0.4395   -2.0679 H         1 <0>         0.0618
     60 H25         0.3517   -1.1077   -2.2755 H         1 <0>         0.0680
     61 H26         0.8466   -2.7634   -1.8489 H         1 <0>         0.0607
     62 H27        -0.4458   -1.9560   -0.9291 H         1 <0>         0.0543
@<TRIPOS>BOND
     1    1    2 1
     2    1   36 1
     3    1   37 1
     4    1   38 1
     5    2    7 1
     6    2    3 2
     7    3    4 1
     8    3   39 1
     9    4    5 1
    10    4   34 1
    11    4   35 1
    12    5    6 1
    13    5   40 1
    14    6   11 1
    15    6    7 1
    16    6   41 1
    17    7    8 1
    18    7   42 1
    19    8   22 1
    20    8    9 2
    21    9   10 1
    22    9   12 1
    23   10   11 2
    24   10   43 1
    25   11   44 1
    26   12   17 ar
    27   12   13 ar
    28   13   14 ar
    29   13   21 1
    30   14   15 ar
    31   14   45 1
    32   15   16 ar
    33   15   46 1
    34   16   17 ar
    35   16   20 1
    36   17   18 1
    37   18   19 1
    38   19   47 1
    39   19   48 1
    40   19   49 1
    41   20   50 1
    42   21   22 1
    43   22   23 2
    44   23   24 1
    45   23   51 1
    46   24   29 ar
    47   24   25 ar
    48   25   26 ar
    49   25   52 1
    50   26   27 ar
    51   26   53 1
    52   27   28 ar
    53   27   33 1
    54   28   29 ar
    55   28   54 1
    56   29   30 1
    57   30   31 2
    58   30   55 1
    59   31   32 1
    60   32   56 1
    61   34   57 1
    62   34   58 1
    63   34   59 1
    64   35   60 1
    65   35   61 1
    66   35   62 1
@<TRIPOS>MOLECULE
CHEMBL232390__1
   63    67     0     0     0
SMALL
USER_CHARGES

@<TRIPOS>ATOM
      1 C1          1.2864    1.8126    1.2739 C.3       1 <0>        -0.1329
      2 C2          1.4075    0.3657    0.8505 C.2       1 <0>        -0.0702
      3 C3          1.8133    0.1303   -0.3707 C.2       1 <0>        -0.1893
      4 C4          2.0699   -1.2467   -0.9044 C.3       1 <0>         0.1020
      5 N1          2.2903   -2.1894    0.2017 N.4       1 <0>        -0.4879
      6 C5          1.1844   -2.1164    1.1408 C.3       1 <0>         0.0530
      7 C6          1.1019   -0.7299    1.7986 C.3       1 <0>        -0.0092
      8 C7         -0.1846   -0.7091    2.5511 C.2       1 <0>        -0.0937
      9 C8         -0.3974   -1.8069    3.3841 C.2       1 <0>        -0.0151
     10 C9          0.5741   -2.9078    3.3662 C.2       1 <0>        -0.0358
     11 C10         1.3385   -3.0994    2.2803 C.2       1 <0>        -0.2116
     12 C11        -1.5833   -1.7917    4.2533 C.ar      1 <0>        -0.1342
     13 C12        -2.3361   -0.6043    4.3382 C.ar      1 <0>         0.1381
     14 C13        -3.4409   -0.5385    5.1674 C.ar      1 <0>        -0.1253
     15 C14        -3.8218   -1.6445    5.9052 C.ar      1 <0>        -0.0756
     16 C15        -3.1028   -2.8250    5.8154 C.ar      1 <0>         0.0641
     17 C16        -1.9862   -2.9073    4.9889 C.ar      1 <0>         0.1275
     18 O1         -1.3179   -4.0873    4.9024 O.3       1 <0>        -0.3233
     19 C17        -1.8392   -5.0633    3.9981 C.3       1 <0>         0.0342
     20 O2         -3.4881   -3.9124    6.5379 O.3       1 <0>        -0.4784
     21 O3         -1.9814    0.4673    3.5798 O.3       1 <0>        -0.2272
     22 C18        -1.2325    0.2052    2.4718 C.2       1 <0>         0.0772
     23 C19        -1.6165    0.7784    1.3014 C.2       1 <0>        -0.0905
     24 C20        -2.6248    1.8393    1.3023 C.ar      1 <0>        -0.0351
     25 C21        -2.7111    2.7301    2.3796 C.ar      1 <0>        -0.0673
     26 C22        -3.6617    3.7257    2.3744 C.ar      1 <0>        -0.1308
     27 C23        -4.5407    3.8567    1.3063 C.ar      1 <0>         0.1099
     28 C24        -4.4746    2.9904    0.2334 C.ar      1 <0>        -0.1192
     29 C25        -3.5155    1.9765    0.2130 C.ar      1 <0>        -0.0291
     30 C26        -3.4361    1.0540   -0.9303 C.2       1 <0>         0.1602
     31 N2         -2.5874    0.0746   -0.9150 N.2       1 <0>        -0.3363
     32 O4         -2.5502   -0.8468   -1.9895 O.3       1 <0>        -0.4063
     33 F1         -5.4677    4.8394    1.3180 F         1 <0>        -0.1286
     34 C27         3.3335   -1.2076   -1.7718 C.3       1 <0>        -0.1736
     35 C28         0.8959   -1.6974   -1.7674 C.3       1 <0>        -0.1732
     36 H1          2.2380    2.1524    1.6827 H         1 <0>         0.0846
     37 H2          1.0233    2.4231    0.4101 H         1 <0>         0.0821
     38 H3          0.5107    1.9050    2.0340 H         1 <0>         0.0795
     39 H4          1.9701    0.9713   -1.0260 H         1 <0>         0.1537
     40 H5          2.3683   -3.1282   -0.1696 H         1 <0>         0.4325
     41 H6          0.2393   -2.3297    0.6517 H         1 <0>         0.1478
     42 H7          1.9091   -0.7160    2.5669 H         1 <0>         0.1197
     43 H8          0.7003   -3.5510    4.2240 H         1 <0>         0.1603
     44 H9          2.0342   -3.9145    2.2123 H         1 <0>         0.1561
     45 H10        -4.0091    0.3768    5.2420 H         1 <0>         0.1513
     46 H11        -4.6839   -1.5863    6.5526 H         1 <0>         0.1534
     47 H12        -2.8777   -5.2759    4.2521 H         1 <0>         0.0505
     48 H13        -1.7855   -4.6800    2.9792 H         1 <0>         0.0453
     49 H14        -1.2521   -5.9786    4.0734 H         1 <0>         0.1039
     50 H15        -4.1135   -4.4888    6.0778 H         1 <0>         0.3898
     51 H16        -1.1778    0.4512    0.3704 H         1 <0>         0.1697
     52 H17        -2.0323    2.6357    3.2142 H         1 <0>         0.1443
     53 H18        -3.7250    4.4103    3.2073 H         1 <0>         0.1456
     54 H19        -5.1624    3.0998   -0.5921 H         1 <0>         0.1489
     55 H20        -4.0851    1.1929   -1.7823 H         1 <0>         0.1351
     56 H21        -1.9206   -1.5702   -1.8657 H         1 <0>         0.3940
     57 H22         4.1793   -0.8805   -1.1671 H         1 <0>         0.0842
     58 H23         3.5334   -2.2033   -2.1677 H         1 <0>         0.0853
     59 H24         3.1861   -0.5112   -2.5973 H         1 <0>         0.1093
     60 H25         0.7328   -0.9735   -2.5658 H         1 <0>         0.1116
     61 H26         1.1169   -2.6728   -2.2008 H         1 <0>         0.0883
     62 H27        -0.0012   -1.7680   -1.1523 H         1 <0>         0.0762
     63 H28         3.1573   -1.9554    0.6704 H         1 <0>         0.4305
@<TRIPOS>BOND
     1    1    2 1
     2    1   36 1
     3    1   37 1
     4    1   38 1
     5    2    7 1
     6    2    3 2
     7    3    4 1
     8    3   39 1
     9    4    5 1
    10    4   34 1
    11    4   35 1
    12    5    6 1
    13    5   40 1
    14    5   63 1
    15    6   11 1
    16    6    7 1
    17    6   41 1
    18    7    8 1
    19    7   42 1
    20    8   22 1
    21    8    9 2
    22    9   10 1
    23    9   12 1
    24   10   11 2
    25   10   43 1
    26   11   44 1
    27   12   17 ar
    28   12   13 ar
    29   13   14 ar
    30   13   21 1
    31   14   15 ar
    32   14   45 1
    33   15   16 ar
    34   15   46 1
    35   16   17 ar
    36   16   20 1
    37   17   18 1
    38   18   19 1
    39   19   47 1
    40   19   48 1
    41   19   49 1
    42   20   50 1
    43   21   22 1
    44   22   23 2
    45   23   24 1
    46   23   51 1
    47   24   29 ar
    48   24   25 ar
    49   25   26 ar
    50   25   52 1
    51   26   27 ar
    52   26   53 1
    53   27   28 ar
    54   27   33 1
    55   28   29 ar
    56   28   54 1
    57   29   30 1
    58   30   31 2
    59   30   55 1
    60   31   32 1
    61   32   56 1
    62   34   57 1
    63   34   58 1
    64   34   59 1
    65   35   60 1
    66   35   61 1
    67   35   62 1
@<TRIPOS>MOLECULE
CHEMBL232390__2
   62    66     0     0     0
SMALL
USER_CHARGES

@<TRIPOS>ATOM
      1 C1         -0.9053    2.5334   -1.4695 C.3       1 <0>        -0.1287
      2 C2         -0.9269    1.0353   -1.3078 C.2       1 <0>        -0.1055
      3 C3         -0.7208    0.2968   -2.3556 C.2       1 <0>        -0.1788
      4 C4         -0.7145   -1.2044   -2.3102 C.3       1 <0>         0.1395
      5 N1         -1.3938   -1.6758   -1.0969 N.3       1 <0>        -0.6578
      6 C5         -0.8376   -1.0159    0.0935 C.3       1 <0>         0.1175
      7 C6         -1.1796    0.4666    0.0586 C.3       1 <0>        -0.0290
      8 C7         -0.3832    1.2249    1.0840 C.2       1 <0>        -0.1104
      9 C8          0.8869    0.8219    1.3950 C.2       1 <0>         0.0065
     10 C9          1.4543   -0.3725    0.7595 C.2       1 <0>        -0.1508
     11 C10         0.6487   -1.2293    0.1408 C.2       1 <0>        -0.1122
     12 C11         1.6529    1.6126    2.3750 C.ar      1 <0>        -0.1247
     13 C12         1.0374    2.7240    2.9719 C.ar      1 <0>         0.1341
     14 C13         1.7449    3.4796    3.8942 C.ar      1 <0>        -0.1279
     15 C14         3.0437    3.1396    4.2238 C.ar      1 <0>        -0.0864
     16 C15         3.6559    2.0410    3.6395 C.ar      1 <0>         0.0614
     17 C16         2.9640    1.2712    2.7123 C.ar      1 <0>         0.1256
     18 O1          3.5593    0.1926    2.1382 O.3       1 <0>        -0.3176
     19 C17         3.5467   -1.0276    2.8819 C.3       1 <0>         0.0306
     20 O2          4.9346    1.7172    3.9737 O.3       1 <0>        -0.4809
     21 O3         -0.2354    3.0530    2.6532 O.3       1 <0>        -0.2196
     22 C18        -0.9268    2.3513    1.7320 C.2       1 <0>         0.1238
     23 C19        -2.1943    2.7453    1.4175 C.2       1 <0>        -0.1733
     24 C20        -2.7413    3.9762    1.9901 C.ar      1 <0>        -0.0055
     25 C21        -1.8908    5.0370    2.3262 C.ar      1 <0>        -0.0849
     26 C22        -2.4114    6.1921    2.8645 C.ar      1 <0>        -0.1298
     27 C23        -3.7786    6.3170    3.0787 C.ar      1 <0>         0.0892
     28 C24        -4.6364    5.2848    2.7552 C.ar      1 <0>        -0.1175
     29 C25        -4.1329    4.1060    2.2028 C.ar      1 <0>        -0.0395
     30 C26        -5.0426    3.0048    1.8503 C.2       1 <0>         0.1490
     31 N2         -4.5621    1.8748    1.4358 N.2       1 <0>        -0.3229
     32 O4         -5.4377    0.8149    1.0965 O.3       1 <0>        -0.4117
     33 F1         -4.2724    7.4576    3.6082 F         1 <0>        -0.1367
     34 C27         0.7310   -1.7058   -2.3096 C.3       1 <0>        -0.1478
     35 C28        -1.4381   -1.7522   -3.5420 C.3       1 <0>        -0.1392
     36 H1          0.1100    2.9005   -1.3192 H         1 <0>         0.0644
     37 H2         -1.2417    2.7955   -2.4726 H         1 <0>         0.0625
     38 H3         -1.5686    2.9879   -0.7335 H         1 <0>         0.0731
     39 H4         -0.5463    0.7843   -3.3034 H         1 <0>         0.1116
     40 H5         -2.3900   -1.5283   -1.1598 H         1 <0>         0.3466
     41 H6         -1.2872   -1.4546    0.9843 H         1 <0>         0.0990
     42 H7         -2.2366    0.5847    0.2972 H         1 <0>         0.0995
     43 H8          2.5181   -0.5544    0.7996 H         1 <0>         0.1540
     44 H9          1.0763   -2.0943   -0.3444 H         1 <0>         0.1424
     45 H10         1.2794    4.3372    4.3572 H         1 <0>         0.1478
     46 H11         3.5865    3.7347    4.9432 H         1 <0>         0.1486
     47 H12         4.0613   -0.8799    3.8313 H         1 <0>         0.0474
     48 H13         2.5159   -1.3277    3.0702 H         1 <0>         0.0528
     49 H14         4.0533   -1.8061    2.3113 H         1 <0>         0.1022
     50 H15         5.0035    1.1092    4.7224 H         1 <0>         0.3867
     51 H16        -2.7943    2.1490    0.7461 H         1 <0>         0.1769
     52 H17        -0.8268    4.9486    2.1636 H         1 <0>         0.1424
     53 H18        -1.7520    7.0075    3.1226 H         1 <0>         0.1392
     54 H19        -5.6976    5.3911    2.9257 H         1 <0>         0.1436
     55 H20        -6.1109    3.1382    1.9368 H         1 <0>         0.1298
     56 H21        -4.9873    0.0129    0.7983 H         1 <0>         0.4040
     57 H22         1.3458   -1.0412   -1.7026 H         1 <0>         0.0702
     58 H23         0.7659   -2.7131   -1.8946 H         1 <0>         0.0719
     59 H24         1.1110   -1.7203   -3.3311 H         1 <0>         0.0585
     60 H25        -0.9282   -1.4129   -4.4437 H         1 <0>         0.0636
     61 H26        -1.4345   -2.8417   -3.5108 H         1 <0>         0.0675
     62 H27        -2.4669   -1.3923   -3.5491 H         1 <0>         0.0552
@<TRIPOS>BOND
     1    1    2 1
     2    1   36 1
     3    1   37 1
     4    1   38 1
     5    2    7 1
     6    2    3 2
     7    3    4 1
     8    3   39 1
     9    4    5 1
    10    4   34 1
    11    4   35 1
    12    5    6 1
    13    5   40 1
    14    6   11 1
    15    6    7 1
    16    6   41 1
    17    7    8 1
    18    7   42 1
    19    8   22 1
    20    8    9 2
    21    9   10 1
    22    9   12 1
    23   10   11 2
    24   10   43 1
    25   11   44 1
    26   12   17 ar
    27   12   13 ar
    28   13   14 ar
    29   13   21 1
    30   14   15 ar
    31   14   45 1
    32   15   16 ar
    33   15   46 1
    34   16   17 ar
    35   16   20 1
    36   17   18 1
    37   18   19 1
    38   19   47 1
    39   19   48 1
    40   19   49 1
    41   20   50 1
    42   21   22 1
    43   22   23 2
    44   23   24 1
    45   23   51 1
    46   24   29 ar
    47   24   25 ar
    48   25   26 ar
    49   25   52 1
    50   26   27 ar
    51   26   53 1
    52   27   28 ar
    53   27   33 1
    54   28   29 ar
    55   28   54 1
    56   29   30 1
    57   30   31 2
    58   30   55 1
    59   31   32 1
    60   32   56 1
    61   34   57 1
    62   34   58 1
    63   34   59 1
    64   35   60 1
    65   35   61 1
    66   35   62 1
@<TRIPOS>MOLECULE
CHEMBL232390__3
   63    67     0     0     0
SMALL
USER_CHARGES

@<TRIPOS>ATOM
      1 C1         -0.0002    2.0932   -1.8100 C.3       1 <0>        -0.1383
      2 C2         -0.1486    0.6049   -1.6256 C.2       1 <0>        -0.0772
      3 C3          0.0339   -0.1705   -2.6519 C.2       1 <0>        -0.1821
      4 C4         -0.0858   -1.6654   -2.5759 C.3       1 <0>         0.1029
      5 N1         -0.8682   -2.0531   -1.3965 N.4       1 <0>        -0.4964
      6 C5         -0.2858   -1.4263   -0.2019 C.3       1 <0>         0.0768
      7 C6         -0.4953    0.0798   -0.2616 C.3       1 <0>        -0.0228
      8 C7          0.3358    0.7776    0.7797 C.2       1 <0>        -0.0979
      9 C8          1.5566    0.2687    1.1302 C.2       1 <0>        -0.0020
     10 C9          2.0349   -0.9776    0.5214 C.2       1 <0>        -0.0640
     11 C10         1.1743   -1.7675   -0.1111 C.2       1 <0>        -0.2144
     12 C11         2.3614    1.0005    2.1246 C.ar      1 <0>        -0.1379
     13 C12         1.8298    2.1687    2.6929 C.ar      1 <0>         0.1407
     14 C13         2.5752    2.8704    3.6280 C.ar      1 <0>        -0.1239
     15 C14         3.8290    2.4213    3.9987 C.ar      1 <0>        -0.0744
     16 C15         4.3580    1.2663    3.4428 C.ar      1 <0>         0.0691
     17 C16         3.6273    0.5491    2.5032 C.ar      1 <0>         0.1257
     18 O1          4.1410   -0.5844    1.9570 O.3       1 <0>        -0.3212
     19 C17         4.0019   -1.7894    2.7125 C.3       1 <0>         0.0261
     20 O2          5.5930    0.8350    3.8175 O.3       1 <0>        -0.4785
     21 O3          0.6007    2.6048    2.3341 O.3       1 <0>        -0.2134
     22 C18        -0.1249    1.9543    1.4016 C.2       1 <0>         0.1059
     23 C19        -1.3450    2.4524    1.0494 C.2       1 <0>        -0.1486
     24 C20        -1.7900    3.7417    1.5801 C.ar      1 <0>        -0.0220
     25 C21        -0.8548    4.7341    1.8998 C.ar      1 <0>        -0.0784
     26 C22        -1.2797    5.9447    2.3987 C.ar      1 <0>        -0.1278
     27 C23        -2.6334    6.1935    2.5891 C.ar      1 <0>         0.1036
     28 C24        -3.5736    5.2307    2.2811 C.ar      1 <0>        -0.1163
     29 C25        -3.1676    3.9975    1.7685 C.ar      1 <0>        -0.0368
     30 C26        -4.1651    2.9696    1.4326 C.2       1 <0>         0.1667
     31 N2         -3.7802    1.8088    1.0036 N.2       1 <0>        -0.3426
     32 O4         -4.7403    0.8195    0.6803 O.3       1 <0>        -0.4090
     33 F1         -3.0327    7.3872    3.0800 F         1 <0>        -0.1300
     34 C27         1.3115   -2.2815   -2.4819 C.3       1 <0>        -0.1842
     35 C28        -0.7803   -2.1829   -3.8372 C.3       1 <0>        -0.1726
     36 H1          1.0353    2.3805   -1.6278 H         1 <0>         0.0819
     37 H2         -0.2782    2.3626   -2.8289 H         1 <0>         0.0793
     38 H3         -0.6506    2.6131   -1.1065 H         1 <0>         0.0842
     39 H4          0.2823    0.2799   -3.6015 H         1 <0>         0.1533
     40 H5         -1.8221   -1.7438   -1.5083 H         1 <0>         0.4303
     41 H6         -0.7943   -1.8106    0.6823 H         1 <0>         0.1519
     42 H7         -1.5446    0.2938   -0.0587 H         1 <0>         0.1282
     43 H8          3.0773   -1.2507    0.5927 H         1 <0>         0.1737
     44 H9          1.5381   -2.6719   -0.5760 H         1 <0>         0.1629
     45 H10         2.1745    3.7713    4.0688 H         1 <0>         0.1532
     46 H11         4.4018    2.9753    4.7276 H         1 <0>         0.1550
     47 H12         4.5020   -1.6750    3.6742 H         1 <0>         0.0546
     48 H13         2.9441   -1.9960    2.8753 H         1 <0>         0.0501
     49 H14         4.4535   -2.6162    2.1642 H         1 <0>         0.1055
     50 H15         5.5864    0.2321    4.5736 H         1 <0>         0.3916
     51 H16        -1.9826    1.8953    0.3790 H         1 <0>         0.1755
     52 H17         0.1995    4.5494    1.7555 H         1 <0>         0.1431
     53 H18        -0.5552    6.7070    2.6443 H         1 <0>         0.1440
     54 H19        -4.6236    5.4331    2.4328 H         1 <0>         0.1481
     55 H20        -5.2181    3.1824    1.5435 H         1 <0>         0.1350
     56 H21        -4.3583   -0.0127    0.3694 H         1 <0>         0.3948
     57 H22         1.9479   -1.6464   -1.8657 H         1 <0>         0.1039
     58 H23         1.2423   -3.2721   -2.0323 H         1 <0>         0.0835
     59 H24         1.7397   -2.3650   -3.4808 H         1 <0>         0.1022
     60 H25        -0.1935   -1.9083   -4.7137 H         1 <0>         0.1082
     61 H26        -0.8684   -3.2680   -3.7843 H         1 <0>         0.0845
     62 H27        -1.7739   -1.7410   -3.9121 H         1 <0>         0.0831
     63 H28        -0.8485   -3.0567   -1.2940 H         1 <0>         0.4334
@<TRIPOS>BOND
     1    1    2 1
     2    1   36 1
     3    1   37 1
     4    1   38 1
     5    2    7 1
     6    2    3 2
     7    3    4 1
     8    3   39 1
     9    4    5 1
    10    4   34 1
    11    4   35 1
    12    5    6 1
    13    5   40 1
    14    5   63 1
    15    6   11 1
    16    6    7 1
    17    6   41 1
    18    7    8 1
    19    7   42 1
    20    8   22 1
    21    8    9 2
    22    9   10 1
    23    9   12 1
    24   10   11 2
    25   10   43 1
    26   11   44 1
    27   12   17 ar
    28   12   13 ar
    29   13   14 ar
    30   13   21 1
    31   14   15 ar
    32   14   45 1
    33   15   16 ar
    34   15   46 1
    35   16   17 ar
    36   16   20 1
    37   17   18 1
    38   18   19 1
    39   19   47 1
    40   19   48 1
    41   19   49 1
    42   20   50 1
    43   21   22 1
    44   22   23 2
    45   23   24 1
    46   23   51 1
    47   24   29 ar
    48   24   25 ar
    49   25   26 ar
    50   25   52 1
    51   26   27 ar
    52   26   53 1
    53   27   28 ar
    54   27   33 1
    55   28   29 ar
    56   28   54 1
    57   29   30 1
    58   30   31 2
    59   30   55 1
    60   31   32 1
    61   32   56 1
    62   34   57 1
    63   34   58 1
    64   34   59 1
    65   35   60 1
    66   35   61 1
    67   35   62 1
@<TRIPOS>MOLECULE
CHEMBL232390__4
   62    66     0     0     0
SMALL
USER_CHARGES

@<TRIPOS>ATOM
      1 C1          0.2785    1.8812   -0.6933 C.3       1 <0>        -0.1248
      2 C2          0.2472    0.3992   -0.9647 C.2       1 <0>        -0.0995
      3 C3          0.0194   -0.0030   -2.1780 C.2       1 <0>        -0.1443
      4 C4         -0.0407   -1.4538   -2.5614 C.3       1 <0>         0.1423
      5 N1          0.6175   -2.2742   -1.5370 N.3       1 <0>        -0.6633
      6 C5          0.0811   -1.9612   -0.2042 C.3       1 <0>         0.1176
      7 C6          0.4867   -0.5430    0.1795 C.3       1 <0>         0.0135
      8 C7         -0.2766   -0.0821    1.3904 C.2       1 <0>        -0.1054
      9 C8         -1.5589   -0.5146    1.5928 C.2       1 <0>        -0.0018
     10 C9         -2.1723   -1.4587    0.6523 C.2       1 <0>        -0.1386
     11 C10        -1.4120   -2.1267   -0.2094 C.2       1 <0>        -0.1626
     12 C11        -2.2909   -0.0109    2.7686 C.ar      1 <0>        -0.1265
     13 C12        -1.6325    0.8629    3.6481 C.ar      1 <0>         0.1343
     14 C13        -2.3077    1.3479    4.7576 C.ar      1 <0>        -0.1273
     15 C14        -3.6165    0.9720    4.9961 C.ar      1 <0>        -0.0883
     16 C15        -4.2712    0.1070    4.1322 C.ar      1 <0>         0.0666
     17 C16        -3.6119   -0.3901    3.0144 C.ar      1 <0>         0.1231
     18 O1         -4.2491   -1.2390    2.1655 O.3       1 <0>        -0.3235
     19 C17        -4.1413   -2.6365    2.4435 C.3       1 <0>         0.0326
     20 O2         -5.5591   -0.2559    4.3796 O.3       1 <0>        -0.4865
     21 O3         -0.3504    1.2267    3.4169 O.3       1 <0>        -0.2205
     22 C18         0.3107    0.7941    2.3239 C.2       1 <0>         0.1163
     23 C19         1.5903    1.2186    2.1157 C.2       1 <0>        -0.1598
     24 C20         2.1777    2.2305    2.9949 C.ar      1 <0>        -0.0076
     25 C21         1.3691    3.2149    3.5771 C.ar      1 <0>        -0.0822
     26 C22         1.9277    4.1639    4.4031 C.ar      1 <0>        -0.1313
     27 C23         3.2920    4.1553    4.6665 C.ar      1 <0>         0.0904
     28 C24         4.1088    3.1949    4.1041 C.ar      1 <0>        -0.1187
     29 C25         3.5648    2.2186    3.2679 C.ar      1 <0>        -0.0356
     30 C26         4.4291    1.1889    2.6704 C.2       1 <0>         0.1443
     31 N2          3.9063    0.2256    1.9787 N.2       1 <0>        -0.3190
     32 O4          4.7382   -0.7655    1.4036 O.3       1 <0>        -0.4108
     33 F1          3.8234    5.0946    5.4793 F         1 <0>        -0.1369
     34 C27        -1.5031   -1.8836   -2.6932 C.3       1 <0>        -0.1862
     35 C28         0.6669   -1.6537   -3.9032 C.3       1 <0>        -0.1346
     36 H1          1.2942    2.2536   -0.8266 H         1 <0>         0.0690
     37 H2         -0.3896    2.3918   -1.3869 H         1 <0>         0.0617
     38 H3         -0.0465    2.0702    0.3298 H         1 <0>         0.0649
     39 H4         -0.1342    0.7399   -2.9468 H         1 <0>         0.1131
     40 H5          0.5210   -3.2571   -1.7439 H         1 <0>         0.3485
     41 H6          0.5117   -2.6509    0.5219 H         1 <0>         0.0963
     42 H7          1.5485   -0.5326    0.4256 H         1 <0>         0.1064
     43 H8         -3.2418   -1.6089    0.6549 H         1 <0>         0.1501
     44 H9         -1.8686   -2.8024   -0.9175 H         1 <0>         0.1360
     45 H10        -1.8091    2.0218    5.4385 H         1 <0>         0.1477
     46 H11        -4.1339    1.3557    5.8629 H         1 <0>         0.1485
     47 H12        -3.0923   -2.9318    2.4203 H         1 <0>         0.0516
     48 H13        -4.5553   -2.8437    3.4304 H         1 <0>         0.0548
     49 H14        -4.6942   -3.2002    1.6920 H         1 <0>         0.0990
     50 H15        -6.2165    0.3282    3.9773 H         1 <0>         0.3937
     51 H16         2.1699    0.8080    1.3022 H         1 <0>         0.1755
     52 H17         0.3078    3.2295    3.3777 H         1 <0>         0.1404
     53 H18         1.3006    4.9214    4.8497 H         1 <0>         0.1389
     54 H19         5.1682    3.1965    4.3144 H         1 <0>         0.1435
     55 H20         5.4992    1.2356    2.8082 H         1 <0>         0.1291
     56 H21         4.2581   -1.4420    0.9066 H         1 <0>         0.4068
     57 H22        -1.8799   -1.5942   -3.6742 H         1 <0>         0.0612
     58 H23        -1.5754   -2.9654   -2.5808 H         1 <0>         0.0593
     59 H24        -2.0959   -1.3974   -1.9184 H         1 <0>         0.0752
     60 H25         1.7080   -1.3431   -3.8148 H         1 <0>         0.0651
     61 H26         0.6243   -2.7063   -4.1831 H         1 <0>         0.0568
     62 H27         0.1725   -1.0542   -4.6675 H         1 <0>         0.0613
@<TRIPOS>BOND
     1    1    2 1
     2    1   36 1
     3    1   37 1
     4    1   38 1
     5    2    7 1
     6    2    3 2
     7    3    4 1
     8    3   39 1
     9    4    5 1
    10    4   34 1
    11    4   35 1
    12    5    6 1
    13    5   40 1
    14    6   11 1
    15    6    7 1
    16    6   41 1
    17    7    8 1
    18    7   42 1
    19    8   22 1
    20    8    9 2
    21    9   10 1
    22    9   12 1
    23   10   11 2
    24   10   43 1
    25   11   44 1
    26   12   17 ar
    27   12   13 ar
    28   13   14 ar
    29   13   21 1
    30   14   15 ar
    31   14   45 1
    32   15   16 ar
    33   15   46 1
    34   16   17 ar
    35   16   20 1
    36   17   18 1
    37   18   19 1
    38   19   47 1
    39   19   48 1
    40   19   49 1
    41   20   50 1
    42   21   22 1
    43   22   23 2
    44   23   24 1
    45   23   51 1
    46   24   29 ar
    47   24   25 ar
    48   25   26 ar
    49   25   52 1
    50   26   27 ar
    51   26   53 1
    52   27   28 ar
    53   27   33 1
    54   28   29 ar
    55   28   54 1
    56   29   30 1
    57   30   31 2
    58   30   55 1
    59   31   32 1
    60   32   56 1
    61   34   57 1
    62   34   58 1
    63   34   59 1
    64   35   60 1
    65   35   61 1
    66   35   62 1
@<TRIPOS>MOLECULE
CHEMBL232390__5
   63    67     0     0     0
SMALL
USER_CHARGES

@<TRIPOS>ATOM
      1 C1         -0.0443    1.8949   -0.3352 C.3       1 <0>        -0.1344
      2 C2         -0.0077    0.4199   -0.6421 C.2       1 <0>        -0.0781
      3 C3         -0.1932    0.0347   -1.8689 C.2       1 <0>        -0.1814
      4 C4         -0.1803   -1.4092   -2.2810 C.3       1 <0>         0.1030
      5 N1          0.5155   -2.2187   -1.2741 N.4       1 <0>        -0.4971
      6 C5         -0.0796   -1.9662    0.0455 C.3       1 <0>         0.0757
      7 C6          0.2476   -0.5429    0.4823 C.3       1 <0>        -0.0229
      8 C7         -0.5729   -0.1552    1.6816 C.2       1 <0>        -0.0977
      9 C8         -1.8392   -0.6521    1.8302 C.2       1 <0>        -0.0017
     10 C9         -2.3791   -1.5934    0.8429 C.2       1 <0>        -0.0674
     11 C10        -1.5624   -2.1994   -0.0140 C.2       1 <0>        -0.2134
     12 C11        -2.6292   -0.2192    2.9966 C.ar      1 <0>        -0.1407
     13 C12        -2.0400    0.6574    3.9211 C.ar      1 <0>         0.1401
     14 C13        -2.7706    1.0763    5.0225 C.ar      1 <0>        -0.1234
     15 C14        -4.0663    0.6319    5.2091 C.ar      1 <0>        -0.0761
     16 C15        -4.6526   -0.2365    4.3007 C.ar      1 <0>         0.0748
     17 C16        -3.9374   -0.6673    3.1897 C.ar      1 <0>         0.1248
     18 O1         -4.5073   -1.5197    2.2977 O.3       1 <0>        -0.3258
     19 C17        -4.3411   -2.9183    2.5396 C.3       1 <0>         0.0279
     20 O2         -5.9284   -0.6668    4.4971 O.3       1 <0>        -0.4842
     21 O3         -0.7703    1.0877    3.7411 O.3       1 <0>        -0.2143
     22 C18        -0.0559    0.7177    2.6586 C.2       1 <0>         0.1021
     23 C19         1.2090    1.2050    2.5049 C.2       1 <0>        -0.1391
     24 C20         1.7223    2.2138    3.4326 C.ar      1 <0>        -0.0224
     25 C21         0.8526    3.1440    4.0157 C.ar      1 <0>        -0.0771
     26 C22         1.3416    4.0905    4.8875 C.ar      1 <0>        -0.1282
     27 C23         2.6957    4.1327    5.1965 C.ar      1 <0>         0.1041
     28 C24         3.5720    3.2262    4.6341 C.ar      1 <0>        -0.1169
     29 C25         3.0990    2.2534    3.7518 C.ar      1 <0>        -0.0353
     30 C26         4.0268    1.2808    3.1539 C.2       1 <0>         0.1643
     31 N2          3.5698    0.3178    2.4167 N.2       1 <0>        -0.3405
     32 O4          4.4628   -0.6184    1.8413 O.3       1 <0>        -0.4090
     33 F1          3.1585    5.0686    6.0538 F         1 <0>        -0.1300
     34 C27        -1.6196   -1.9077   -2.4256 C.3       1 <0>        -0.1831
     35 C28         0.5373   -1.5460   -3.6253 C.3       1 <0>        -0.1728
     36 H1          0.9574    2.3123   -0.4378 H         1 <0>         0.0850
     37 H2         -0.7188    2.3941   -1.0308 H         1 <0>         0.0786
     38 H3         -0.3978    2.0452    0.6848 H         1 <0>         0.0785
     39 H4         -0.3645    0.7860   -2.6256 H         1 <0>         0.1533
     40 H5          0.4219   -3.1966   -1.5045 H         1 <0>         0.4332
     41 H6          0.3579   -2.6551    0.7680 H         1 <0>         0.1513
     42 H7          1.3005   -0.4893    0.7589 H         1 <0>         0.1289
     43 H8         -3.4400   -1.7921    0.8067 H         1 <0>         0.1728
     44 H9         -1.9646   -2.8722   -0.7569 H         1 <0>         0.1651
     45 H10        -2.3255    1.7521    5.7377 H         1 <0>         0.1529
     46 H11        -4.6269    0.9638    6.0705 H         1 <0>         0.1550
     47 H12        -3.2790   -3.1631    2.5412 H         1 <0>         0.0479
     48 H13        -4.7743   -3.1737    3.5066 H         1 <0>         0.0620
     49 H14        -4.8434   -3.4848    1.7554 H         1 <0>         0.1038
     50 H15        -6.6007   -0.1024    4.0914 H         1 <0>         0.3991
     51 H16         1.8316    0.8463    1.6986 H         1 <0>         0.1698
     52 H17        -0.2013    3.1190    3.7811 H         1 <0>         0.1418
     53 H18         0.6676    4.8061    5.3346 H         1 <0>         0.1440
     54 H19         4.6228    3.2670    4.8800 H         1 <0>         0.1481
     55 H20         5.0888    1.3692    3.3295 H         1 <0>         0.1346
     56 H21         4.0295   -1.2991    1.3084 H         1 <0>         0.3952
     57 H22        -1.9992   -1.6406   -3.4119 H         1 <0>         0.1021
     58 H23        -1.6423   -2.9912   -2.3087 H         1 <0>         0.0836
     59 H24        -2.2426   -1.4464   -1.6594 H         1 <0>         0.1035
     60 H25         1.5614   -1.1853   -3.5289 H         1 <0>         0.0829
     61 H26         0.5479   -2.5935   -3.9266 H         1 <0>         0.0846
     62 H27         0.0139   -0.9567   -4.3782 H         1 <0>         0.1083
     63 H28         1.4927   -1.9680   -1.2567 H         1 <0>         0.4301
@<TRIPOS>BOND
     1    1    2 1
     2    1   36 1
     3    1   37 1
     4    1   38 1
     5    2    7 1
     6    2    3 2
     7    3    4 1
     8    3   39 1
     9    4    5 1
    10    4   34 1
    11    4   35 1
    12    5    6 1
    13    5   40 1
    14    5   63 1
    15    6   11 1
    16    6    7 1
    17    6   41 1
    18    7    8 1
    19    7   42 1
    20    8   22 1
    21    8    9 2
    22    9   10 1
    23    9   12 1
    24   10   11 2
    25   10   43 1
    26   11   44 1
    27   12   17 ar
    28   12   13 ar
    29   13   14 ar
    30   13   21 1
    31   14   15 ar
    32   14   45 1
    33   15   16 ar
    34   15   46 1
    35   16   17 ar
    36   16   20 1
    37   17   18 1
    38   18   19 1
    39   19   47 1
    40   19   48 1
    41   19   49 1
    42   20   50 1
    43   21   22 1
    44   22   23 2
    45   23   24 1
    46   23   51 1
    47   24   29 ar
    48   24   25 ar
    49   25   26 ar
    50   25   52 1
    51   26   27 ar
    52   26   53 1
    53   27   28 ar
    54   27   33 1
    55   28   29 ar
    56   28   54 1
    57   29   30 1
    58   30   31 2
    59   30   55 1
    60   31   32 1
    61   32   56 1
    62   34   57 1
    63   34   58 1
    64   34   59 1
    65   35   60 1
    66   35   61 1
    67   35   62 1
@<TRIPOS>MOLECULE
CHEMBL232390__6
   62    66     0     0     0
SMALL
USER_CHARGES

@<TRIPOS>ATOM
      1 C1          0.1316    2.3955    0.2721 C.3       1 <0>        -0.1227
      2 C2         -0.1573    0.9291    0.0395 C.2       1 <0>        -0.0998
      3 C3         -0.3719    0.5513   -1.1944 C.2       1 <0>        -0.1809
      4 C4         -0.7545   -0.8474   -1.5751 C.3       1 <0>         0.1447
      5 N1         -1.3182   -1.5493   -0.4118 N.3       1 <0>        -0.6607
      6 C5         -0.4176   -1.4734    0.7255 C.3       1 <0>         0.1222
      7 C6         -0.2189   -0.0171    1.1755 C.3       1 <0>        -0.0328
      8 C7          0.8884   -0.0443    2.1717 C.2       1 <0>        -0.0928
      9 C8          0.7429   -0.9906    3.1855 C.2       1 <0>        -0.0188
     10 C9         -0.3845   -1.9286    3.1213 C.2       1 <0>        -0.1188
     11 C10        -0.9525   -2.2036    1.9365 C.2       1 <0>        -0.1240
     12 C11         1.7256   -0.9819    4.2796 C.ar      1 <0>        -0.1195
     13 C12         2.6532    0.0759    4.3386 C.ar      1 <0>         0.1297
     14 C13         3.5753    0.1376    5.3675 C.ar      1 <0>        -0.1287
     15 C14         3.5999   -0.8476    6.3373 C.ar      1 <0>        -0.0907
     16 C15         2.7069   -1.9053    6.2808 C.ar      1 <0>         0.0629
     17 C16         1.7714   -1.9809    5.2530 C.ar      1 <0>         0.1237
     18 O1          0.9266   -3.0444    5.2124 O.3       1 <0>        -0.3257
     19 C17         1.3683   -4.1967    4.4919 C.3       1 <0>         0.0400
     20 O2          2.7437   -2.8781    7.2322 O.3       1 <0>        -0.4871
     21 O3          2.6517    1.0240    3.3643 O.3       1 <0>        -0.2340
     22 C18         2.0803    0.6779    2.1775 C.2       1 <0>         0.0993
     23 C19         2.7627    0.9670    1.0380 C.2       1 <0>        -0.1166
     24 C20         3.9294    1.8492    1.0875 C.ar      1 <0>        -0.0193
     25 C21         3.9889    2.8887    2.0243 C.ar      1 <0>        -0.0730
     26 C22         5.0891    3.7151    2.0658 C.ar      1 <0>        -0.1331
     27 C23         6.1461    3.5278    1.1836 C.ar      1 <0>         0.0962
     28 C24         6.1098    2.5100    0.2515 C.ar      1 <0>        -0.1205
     29 C25         5.0077    1.6554    0.1939 C.ar      1 <0>        -0.0306
     30 C26         4.9658    0.5651   -0.7929 C.2       1 <0>         0.1428
     31 N2          3.9916   -0.2894   -0.7736 N.2       1 <0>        -0.3173
     32 O4          3.9963   -1.3889   -1.6658 O.3       1 <0>        -0.4079
     33 F1          7.2178    4.3486    1.2380 F         1 <0>        -0.1353
     34 C27         0.4656   -1.5921   -2.1082 C.3       1 <0>        -0.1347
     35 C28        -1.8189   -0.7849   -2.6757 C.3       1 <0>        -0.1405
     36 H1          1.2076    2.5649    0.2302 H         1 <0>         0.0735
     37 H2         -0.3600    2.9893   -0.4985 H         1 <0>         0.0643
     38 H3         -0.2445    2.6890    1.2521 H         1 <0>         0.0619
     39 H4         -0.2671    1.2843   -1.9765 H         1 <0>         0.1122
     40 H5         -2.2374   -1.1995   -0.1878 H         1 <0>         0.3483
     41 H6          0.5513   -1.9013    0.4859 H         1 <0>         0.0945
     42 H7         -1.1387    0.2432    1.7481 H         1 <0>         0.0879
     43 H8         -0.7809   -2.3834    4.0167 H         1 <0>         0.1392
     44 H9         -1.7539   -2.9117    1.8427 H         1 <0>         0.1373
     45 H10         4.2788    0.9560    5.4167 H         1 <0>         0.1455
     46 H11         4.3177   -0.7910    7.1416 H         1 <0>         0.1466
     47 H12         1.5500   -3.9270    3.4515 H         1 <0>         0.0466
     48 H13         2.2902   -4.5717    4.9363 H         1 <0>         0.0521
     49 H14         0.6017   -4.9701    4.5382 H         1 <0>         0.0981
     50 H15         2.1804   -2.7008    7.9980 H         1 <0>         0.3930
     51 H16         2.4439    0.5456    0.0960 H         1 <0>         0.1704
     52 H17         3.1719    3.0420    2.7137 H         1 <0>         0.1431
     53 H18         5.1308    4.5157    2.7895 H         1 <0>         0.1408
     54 H19         6.9360    2.3724   -0.4303 H         1 <0>         0.1446
     55 H20         5.7469    0.4768   -1.5336 H         1 <0>         0.1303
     56 H21         3.2029   -1.9394   -1.6160 H         1 <0>         0.4023
     57 H22         1.2599   -1.5691   -1.3621 H         1 <0>         0.0514
     58 H23         0.1959   -2.6267   -2.3201 H         1 <0>         0.0691
     59 H24         0.8128   -1.1124   -3.0233 H         1 <0>         0.0634
     60 H25        -1.4144   -0.2632   -3.5431 H         1 <0>         0.0642
     61 H26        -2.1058   -1.7968   -2.9616 H         1 <0>         0.0680
     62 H27        -2.6935   -0.2502   -2.3054 H         1 <0>         0.0558
@<TRIPOS>BOND
     1    1    2 1
     2    1   36 1
     3    1   37 1
     4    1   38 1
     5    2    7 1
     6    2    3 2
     7    3    4 1
     8    3   39 1
     9    4    5 1
    10    4   34 1
    11    4   35 1
    12    5    6 1
    13    5   40 1
    14    6   11 1
    15    6    7 1
    16    6   41 1
    17    7    8 1
    18    7   42 1
    19    8   22 1
    20    8    9 2
    21    9   10 1
    22    9   12 1
    23   10   11 2
    24   10   43 1
    25   11   44 1
    26   12   17 ar
    27   12   13 ar
    28   13   14 ar
    29   13   21 1
    30   14   15 ar
    31   14   45 1
    32   15   16 ar
    33   15   46 1
    34   16   17 ar
    35   16   20 1
    36   17   18 1
    37   18   19 1
    38   19   47 1
    39   19   48 1
    40   19   49 1
    41   20   50 1
    42   21   22 1
    43   22   23 2
    44   23   24 1
    45   23   51 1
    46   24   29 ar
    47   24   25 ar
    48   25   26 ar
    49   25   52 1
    50   26   27 ar
    51   26   53 1
    52   27   28 ar
    53   27   33 1
    54   28   29 ar
    55   28   54 1
    56   29   30 1
    57   30   31 2
    58   30   55 1
    59   31   32 1
    60   32   56 1
    61   34   57 1
    62   34   58 1
    63   34   59 1
    64   35   60 1
    65   35   61 1
    66   35   62 1
@<TRIPOS>MOLECULE
CHEMBL232390__7
   63    67     0     0     0
SMALL
USER_CHARGES

@<TRIPOS>ATOM
      1 C1          0.1935    2.3892    0.1942 C.3       1 <0>        -0.1328
      2 C2         -0.1056    0.9209   -0.0104 C.2       1 <0>        -0.0703
      3 C3         -0.3088    0.5160   -1.2380 C.2       1 <0>        -0.1896
      4 C4         -0.7030   -0.8865   -1.5892 C.3       1 <0>         0.1023
      5 N1         -1.2988   -1.5550   -0.4234 N.4       1 <0>        -0.4876
      6 C5         -0.3967   -1.4643    0.7114 C.3       1 <0>         0.0523
      7 C6         -0.1882   -0.0039    1.1431 C.3       1 <0>        -0.0088
      8 C7          0.9171   -0.0264    2.1423 C.2       1 <0>        -0.0925
      9 C8          0.7697   -0.9650    3.1631 C.2       1 <0>        -0.0168
     10 C9         -0.3637   -1.8968    3.1113 C.2       1 <0>        -0.0369
     11 C10        -0.9361   -2.1778    1.9310 C.2       1 <0>        -0.2109
     12 C11         1.7572   -0.9556    4.2530 C.ar      1 <0>        -0.1361
     13 C12         2.6769    0.1092    4.3146 C.ar      1 <0>         0.1360
     14 C13         3.5996    0.1740    5.3418 C.ar      1 <0>        -0.1250
     15 C14         3.6367   -0.8178    6.3052 C.ar      1 <0>        -0.0775
     16 C15         2.7535   -1.8835    6.2441 C.ar      1 <0>         0.0696
     17 C16         1.8152   -1.9611    5.2188 C.ar      1 <0>         0.1265
     18 O1          0.9819   -3.0337    5.1701 O.3       1 <0>        -0.3282
     19 C17         1.4360   -4.1753    4.4402 C.3       1 <0>         0.0374
     20 O2          2.8014   -2.8612    7.1900 O.3       1 <0>        -0.4852
     21 O3          2.6649    1.0587    3.3410 O.3       1 <0>        -0.2275
     22 C18         2.1073    0.6974    2.1510 C.2       1 <0>         0.0791
     23 C19         2.8042    0.9728    1.0176 C.2       1 <0>        -0.0917
     24 C20         3.9713    1.8541    1.0721 C.ar      1 <0>        -0.0369
     25 C21         4.0261    2.8959    2.0067 C.ar      1 <0>        -0.0671
     26 C22         5.1268    3.7214    2.0528 C.ar      1 <0>        -0.1314
     27 C23         6.1890    3.5309    1.1776 C.ar      1 <0>         0.1106
     28 C24         6.1575    2.5108    0.2480 C.ar      1 <0>        -0.1195
     29 C25         5.0549    1.6570    0.1857 C.ar      1 <0>        -0.0282
     30 C26         5.0181    0.5643   -0.7987 C.2       1 <0>         0.1594
     31 N2          4.0412   -0.2872   -0.7854 N.2       1 <0>        -0.3358
     32 O4          4.0395   -1.3770   -1.6895 O.3       1 <0>        -0.4055
     33 F1          7.2611    4.3508    1.2366 F         1 <0>        -0.1285
     34 C27         0.5133   -1.6602   -2.0873 C.3       1 <0>        -0.1742
     35 C28        -1.7485   -0.8353   -2.7095 C.3       1 <0>        -0.1736
     36 H1          1.2713    2.5486    0.1604 H         1 <0>         0.0892
     37 H2         -0.2846    2.9707   -0.5941 H         1 <0>         0.0809
     38 H3         -0.1905    2.7066    1.1637 H         1 <0>         0.0771
     39 H4         -0.1866    1.2292   -2.0360 H         1 <0>         0.1540
     40 H5         -2.1809   -1.1094   -0.1995 H         1 <0>         0.4305
     41 H6          0.5693   -1.9023    0.4803 H         1 <0>         0.1478
     42 H7         -1.1080    0.2754    1.7058 H         1 <0>         0.1199
     43 H8         -0.7583   -2.3425    4.0124 H         1 <0>         0.1601
     44 H9         -1.7454   -2.8778    1.8448 H         1 <0>         0.1562
     45 H10         4.2948    0.9991    5.3953 H         1 <0>         0.1509
     46 H11         4.3570   -0.7603    7.1069 H         1 <0>         0.1531
     47 H12         1.6141   -3.8955    3.4019 H         1 <0>         0.0419
     48 H13         2.3622   -4.5437    4.8813 H         1 <0>         0.0586
     49 H14         0.6779   -4.9575    4.4808 H         1 <0>         0.1013
     50 H15         2.2380   -2.6936    7.9578 H         1 <0>         0.3985
     51 H16         2.4968    0.5414    0.0765 H         1 <0>         0.1679
     52 H17         3.2049    3.0517    2.6906 H         1 <0>         0.1454
     53 H18         5.1647    4.5237    2.7748 H         1 <0>         0.1457
     54 H19         6.9877    2.3707   -0.4284 H         1 <0>         0.1491
     55 H20         5.8052    0.4717   -1.5324 H         1 <0>         0.1354
     56 H21         3.2402   -1.9198   -1.6497 H         1 <0>         0.3933
     57 H22         1.3028   -1.6183   -1.3370 H         1 <0>         0.0773
     58 H23         0.2354   -2.6991   -2.2647 H         1 <0>         0.0875
     59 H24         0.8709   -1.2161   -3.0162 H         1 <0>         0.1119
     60 H25        -1.3221   -0.3404   -3.5821 H         1 <0>         0.1093
     61 H26        -2.0454   -1.8497   -2.9761 H         1 <0>         0.0854
     62 H27        -2.6213   -0.2795   -2.3668 H         1 <0>         0.0843
     63 H28        -1.4765   -2.5257   -0.6484 H         1 <0>         0.4325
@<TRIPOS>BOND
     1    1    2 1
     2    1   36 1
     3    1   37 1
     4    1   38 1
     5    2    7 1
     6    2    3 2
     7    3    4 1
     8    3   39 1
     9    4    5 1
    10    4   34 1
    11    4   35 1
    12    5    6 1
    13    5   40 1
    14    5   63 1
    15    6   11 1
    16    6    7 1
    17    6   41 1
    18    7    8 1
    19    7   42 1
    20    8   22 1
    21    8    9 2
    22    9   10 1
    23    9   12 1
    24   10   11 2
    25   10   43 1
    26   11   44 1
    27   12   17 ar
    28   12   13 ar
    29   13   14 ar
    30   13   21 1
    31   14   15 ar
    32   14   45 1
    33   15   16 ar
    34   15   46 1
    35   16   17 ar
    36   16   20 1
    37   17   18 1
    38   18   19 1
    39   19   47 1
    40   19   48 1
    41   19   49 1
    42   20   50 1
    43   21   22 1
    44   22   23 2
    45   23   24 1
    46   23   51 1
    47   24   29 ar
    48   24   25 ar
    49   25   26 ar
    50   25   52 1
    51   26   27 ar
    52   26   53 1
    53   27   28 ar
    54   27   33 1
    55   28   29 ar
    56   28   54 1
    57   29   30 1
    58   30   31 2
    59   30   55 1
    60   31   32 1
    61   32   56 1
    62   34   57 1
    63   34   58 1
    64   34   59 1
    65   35   60 1
    66   35   61 1
    67   35   62 1
@<TRIPOS>MOLECULE
CHEMBL182827
   65    70     0     0     0
SMALL
USER_CHARGES

@<TRIPOS>ATOM
      1 C1         -0.6698    2.6734   -1.0504 C.3       1 <0>        -0.1506
      2 C2         -0.6200    1.1797   -0.7230 C.3       1 <0>        -0.0118
      3 C3         -2.0581    0.6371   -0.7477 C.3       1 <0>        -0.0344
      4 C4         -2.5848    0.0294    0.5323 C.2       1 <0>        -0.2164
      5 C5         -3.8202   -0.5163    0.8704 C.2       1 <0>         0.0700
      6 N1         -3.7766   -0.9067    2.1199 N.2       1 <0>        -0.2799
      7 N2         -2.5057   -0.6259    2.6358 N.pl3     1 <0>        -0.3216
      8 C6         -1.7664   -0.0474    1.6374 C.2       1 <0>         0.1194
      9 C7         -0.3790    0.4295    1.6099 C.2       1 <0>        -0.1258
     10 C8          0.1683    1.0047    0.5571 C.2       1 <0>        -0.0474
     11 C9          1.6102    1.4538    0.5812 C.3       1 <0>        -0.0837
     12 C10         2.3394    0.7912   -0.5939 C.3       1 <0>        -0.1123
     13 C11         1.5845    1.0829   -1.8917 C.3       1 <0>        -0.1357
     14 C12         0.1783    0.4840   -1.8263 C.3       1 <0>        -0.1031
     15 H1          0.2469   -0.5818   -1.6083 H         1 <0>         0.0831
     16 C13        -0.5253    0.6859   -3.1698 C.3       1 <0>         0.1529
     17 C14         0.1712   -0.1290   -4.2290 C.ar      1 <0>        -0.1454
     18 C15         1.3391    0.3387   -4.8028 C.ar      1 <0>        -0.0734
     19 C16         1.9797   -0.4065   -5.7736 C.ar      1 <0>        -0.1896
     20 C17         1.4503   -1.6253   -6.1729 C.ar      1 <0>         0.1244
     21 C18         0.2781   -2.0923   -5.5955 C.ar      1 <0>        -0.1417
     22 C19        -0.3557   -1.3457   -4.6213 C.ar      1 <0>        -0.0713
     23 O1          2.0783   -2.3601   -7.1279 O.3       1 <0>        -0.2593
     24 C20         3.2797   -1.9192   -7.5848 C.ar      1 <0>         0.0824
     25 C21         4.4242   -2.1067   -6.8231 C.ar      1 <0>        -0.1322
     26 C22         5.6443   -1.6575   -7.2898 C.ar      1 <0>        -0.1052
     27 C23         5.7255   -1.0211   -8.5147 C.ar      1 <0>        -0.1175
     28 C24         4.5865   -0.8325   -9.2755 C.ar      1 <0>        -0.1045
     29 C25         3.3649   -1.2857   -8.8164 C.ar      1 <0>        -0.1225
     30 O2         -0.4816    2.0688   -3.5273 O.3       1 <0>        -0.5453
     31 C26        -2.0676   -0.8897    3.9404 C.ar      1 <0>         0.1485
     32 C27        -0.7485   -1.2578    4.1697 C.ar      1 <0>        -0.1050
     33 C28        -0.3186   -1.5170    5.4561 C.ar      1 <0>        -0.1304
     34 C29        -1.2021   -1.4100    6.5172 C.ar      1 <0>         0.0971
     35 C30        -2.5182   -1.0435    6.2906 C.ar      1 <0>        -0.1318
     36 C31        -2.9506   -0.7779    5.0062 C.ar      1 <0>        -0.0830
     37 F1         -0.7796   -1.6639    7.7751 F         1 <0>        -0.1334
     38 H2          0.3327    3.0259   -1.2927 H         1 <0>         0.0602
     39 H3         -1.3285    2.8366   -1.9034 H         1 <0>         0.0898
     40 H4         -1.0493    3.2218   -0.1882 H         1 <0>         0.0470
     41 H5         -2.7210    1.4555   -1.0283 H         1 <0>         0.0779
     42 H6         -2.1176   -0.1211   -1.5286 H         1 <0>         0.0726
     43 H7         -4.6723   -0.6029    0.2124 H         1 <0>         0.1905
     44 H8          0.2175    0.3228    2.5039 H         1 <0>         0.1175
     45 H9          1.6592    2.5380    0.4800 H         1 <0>         0.0837
     46 H10         2.0740    1.1504    1.5198 H         1 <0>         0.0746
     47 H11         3.3515    1.1897   -0.6648 H         1 <0>         0.0705
     48 H12         2.3835   -0.2860   -0.4334 H         1 <0>         0.0652
     49 H13         1.5121    2.1613   -2.0333 H         1 <0>         0.0743
     50 H14         2.1253    0.6453   -2.7308 H         1 <0>         0.0751
     51 H15        -1.5636    0.3643   -3.0882 H         1 <0>         0.1135
     52 H16         1.7506    1.2876   -4.4919 H         1 <0>         0.1248
     53 H17         2.8917   -0.0405   -6.2217 H         1 <0>         0.1287
     54 H18        -0.1360   -3.0407   -5.9045 H         1 <0>         0.1339
     55 H19        -1.2656   -1.7108   -4.1684 H         1 <0>         0.1322
     56 H20         4.3612   -2.6031   -5.8660 H         1 <0>         0.1296
     57 H21         6.5354   -1.8032   -6.6973 H         1 <0>         0.1309
     58 H22         6.6803   -0.6703   -8.8776 H         1 <0>         0.1295
     59 H23         4.6526   -0.3348  -10.2317 H         1 <0>         0.1323
     60 H24         2.4763   -1.1425   -9.4132 H         1 <0>         0.1322
     61 H25         0.4134    2.4236   -3.6177 H         1 <0>         0.3697
     62 H26        -0.0593   -1.3417    3.3424 H         1 <0>         0.1420
     63 H27         0.7072   -1.8036    5.6349 H         1 <0>         0.1469
     64 H28        -3.2058   -0.9609    7.1194 H         1 <0>         0.1469
     65 H29        -3.9758   -0.4874    4.8304 H         1 <0>         0.1445
@<TRIPOS>BOND
     1    1    2 1
     2    1   38 1
     3    1   39 1
     4    1   40 1
     5    2   10 1
     6    2   14 1
     7    2    3 1
     8    3    4 1
     9    3   41 1
    10    3   42 1
    11    4    8 2
    12    4    5 1
    13    5    6 2
    14    5   43 1
    15    6    7 1
    16    7    8 1
    17    7   31 1
    18    8    9 1
    19    9   10 2
    20    9   44 1
    21   10   11 1
    22   11   12 1
    23   11   45 1
    24   11   46 1
    25   12   13 1
    26   12   47 1
    27   12   48 1
    28   13   14 1
    29   13   49 1
    30   13   50 1
    31   14   15 1
    32   14   16 1
    33   16   17 1
    34   16   30 1
    35   16   51 1
    36   17   22 ar
    37   17   18 ar
    38   18   19 ar
    39   18   52 1
    40   19   20 ar
    41   19   53 1
    42   20   21 ar
    43   20   23 1
    44   21   22 ar
    45   21   54 1
    46   22   55 1
    47   23   24 1
    48   24   29 ar
    49   24   25 ar
    50   25   26 ar
    51   25   56 1
    52   26   27 ar
    53   26   57 1
    54   27   28 ar
    55   27   58 1
    56   28   29 ar
    57   28   59 1
    58   29   60 1
    59   30   61 1
    60   31   36 ar
    61   31   32 ar
    62   32   33 ar
    63   32   62 1
    64   33   34 ar
    65   33   63 1
    66   34   35 ar
    67   34   37 1
    68   35   36 ar
    69   35   64 1
    70   36   65 1
@<TRIPOS>MOLECULE
CHEMBL182827__1
   65    70     0     0     0
SMALL
USER_CHARGES

@<TRIPOS>ATOM
      1 C1          0.4125    1.6727    0.2490 C.3       1 <0>        -0.1523
      2 C2          0.3465    0.1463    0.3302 C.3       1 <0>        -0.0103
      3 C3         -1.1333   -0.2697    0.3080 C.3       1 <0>        -0.0652
      4 C4         -1.6492   -1.0357    1.5047 C.2       1 <0>        -0.2078
      5 C5         -2.9102   -1.5302    1.8270 C.2       1 <0>         0.0677
      6 N1         -2.8411   -2.1225    2.9931 N.2       1 <0>        -0.2809
      7 N2         -1.5271   -2.0314    3.4678 N.pl3     1 <0>        -0.3226
      8 C6         -0.7886   -1.3571    2.5309 C.2       1 <0>         0.1096
      9 C7          0.6324   -0.9932    2.4943 C.2       1 <0>        -0.1211
     10 C8          1.1769   -0.2980    1.5149 C.2       1 <0>        -0.0525
     11 C9          2.6522    0.0258    1.5215 C.3       1 <0>        -0.0842
     12 C10         3.2631   -0.4904    0.2130 C.3       1 <0>        -0.1143
     13 C11         2.4753    0.0690   -0.9726 C.3       1 <0>        -0.1233
     14 C12         1.0267   -0.4197   -0.9169 C.3       1 <0>        -0.1025
     15 H1          1.0118   -1.5088   -0.8764 H         1 <0>         0.0775
     16 C13         0.2799    0.0549   -2.1651 C.3       1 <0>         0.1520
     17 C14         1.0642   -0.3251   -3.3946 C.ar      1 <0>        -0.1421
     18 C15         0.9116   -1.5825   -3.9492 C.ar      1 <0>        -0.0726
     19 C16         1.6289   -1.9332   -5.0764 C.ar      1 <0>        -0.1888
     20 C17         2.5032   -1.0224   -5.6521 C.ar      1 <0>         0.1226
     21 C18         2.6545    0.2387   -5.0935 C.ar      1 <0>        -0.1416
     22 C19         1.9308    0.5862   -3.9693 C.ar      1 <0>        -0.0711
     23 O1          3.2104   -1.3650   -6.7607 O.3       1 <0>        -0.2578
     24 C20         2.9377   -2.5600   -7.3473 C.ar      1 <0>         0.0846
     25 C21         1.7194   -2.7615   -7.9802 C.ar      1 <0>        -0.1386
     26 C22         1.4446   -3.9773   -8.5757 C.ar      1 <0>        -0.1032
     27 C23         2.3821   -4.9930   -8.5411 C.ar      1 <0>        -0.1200
     28 C24         3.5967   -4.7949   -7.9107 C.ar      1 <0>        -0.1030
     29 C25         3.8792   -3.5789   -7.3194 C.ar      1 <0>        -0.1223
     30 O2         -1.0085   -0.5616   -2.2126 O.3       1 <0>        -0.5395
     31 C26        -1.0518   -2.5395    4.6841 C.ar      1 <0>         0.1500
     32 C27         0.2394   -3.0431    4.7700 C.ar      1 <0>        -0.1058
     33 C28         0.7062   -3.5430    5.9697 C.ar      1 <0>        -0.1303
     34 C29        -0.1126   -3.5422    7.0867 C.ar      1 <0>         0.0961
     35 C30        -1.4008   -3.0407    7.0030 C.ar      1 <0>        -0.1316
     36 C31        -1.8693   -2.5347    5.8065 C.ar      1 <0>        -0.0840
     37 F1          0.3459   -4.0316    8.2595 F         1 <0>        -0.1337
     38 H2          1.4486    1.9853    0.1196 H         1 <0>         0.0649
     39 H3         -0.1796    2.0174   -0.5988 H         1 <0>         0.0653
     40 H4          0.0153    2.1030    1.1684 H         1 <0>         0.0582
     41 H5         -1.7344    0.6335    0.2029 H         1 <0>         0.0718
     42 H6         -1.2965   -0.8823   -0.5786 H         1 <0>         0.1173
     43 H7         -3.7971   -1.4401    1.2174 H         1 <0>         0.1898
     44 H8          1.2594   -1.2918    3.3213 H         1 <0>         0.1163
     45 H9          2.7914    1.1046    1.5916 H         1 <0>         0.0828
     46 H10         3.1321   -0.4631    2.3693 H         1 <0>         0.0740
     47 H11         4.3017   -0.1668    0.1444 H         1 <0>         0.0704
     48 H12         3.2200   -1.5794    0.1967 H         1 <0>         0.0641
     49 H13         2.4912    1.1583   -0.9356 H         1 <0>         0.0728
     50 H14         2.9346   -0.2663   -1.9024 H         1 <0>         0.0738
     51 H15         0.1632    1.1380   -2.1289 H         1 <0>         0.1146
     52 H16         0.2312   -2.2911   -3.5006 H         1 <0>         0.1227
     53 H17         1.5096   -2.9155   -5.5091 H         1 <0>         0.1293
     54 H18         3.3344    0.9495   -5.5396 H         1 <0>         0.1339
     55 H19         2.0448    1.5692   -3.5367 H         1 <0>         0.1322
     56 H20         0.9865   -1.9687   -8.0068 H         1 <0>         0.1298
     57 H21         0.4965   -4.1346   -9.0684 H         1 <0>         0.1309
     58 H22         2.1652   -5.9429   -9.0070 H         1 <0>         0.1293
     59 H23         4.3271   -5.5901   -7.8848 H         1 <0>         0.1325
     60 H24         4.8299   -3.4231   -6.8313 H         1 <0>         0.1324
     61 H25        -0.9833   -1.5279   -2.1852 H         1 <0>         0.3750
     62 H26         0.8780   -3.0443    3.8991 H         1 <0>         0.1417
     63 H27         1.7102   -3.9351    6.0369 H         1 <0>         0.1466
     64 H28        -2.0378   -3.0413    7.8751 H         1 <0>         0.1466
     65 H29        -2.8723   -2.1393    5.7429 H         1 <0>         0.1442
@<TRIPOS>BOND
     1    1    2 1
     2    1   38 1
     3    1   39 1
     4    1   40 1
     5    2   10 1
     6    2   14 1
     7    2    3 1
     8    3    4 1
     9    3   41 1
    10    3   42 1
    11    4    8 2
    12    4    5 1
    13    5    6 2
    14    5   43 1
    15    6    7 1
    16    7    8 1
    17    7   31 1
    18    8    9 1
    19    9   10 2
    20    9   44 1
    21   10   11 1
    22   11   12 1
    23   11   45 1
    24   11   46 1
    25   12   13 1
    26   12   47 1
    27   12   48 1
    28   13   14 1
    29   13   49 1
    30   13   50 1
    31   14   15 1
    32   14   16 1
    33   16   17 1
    34   16   30 1
    35   16   51 1
    36   17   22 ar
    37   17   18 ar
    38   18   19 ar
    39   18   52 1
    40   19   20 ar
    41   19   53 1
    42   20   21 ar
    43   20   23 1
    44   21   22 ar
    45   21   54 1
    46   22   55 1
    47   23   24 1
    48   24   29 ar
    49   24   25 ar
    50   25   26 ar
    51   25   56 1
    52   26   27 ar
    53   26   57 1
    54   27   28 ar
    55   27   58 1
    56   28   29 ar
    57   28   59 1
    58   29   60 1
    59   30   61 1
    60   31   36 ar
    61   31   32 ar
    62   32   33 ar
    63   32   62 1
    64   33   34 ar
    65   33   63 1
    66   34   35 ar
    67   34   37 1
    68   35   36 ar
    69   35   64 1
    70   36   65 1
@<TRIPOS>MOLECULE
CHEMBL273143
   84    89     0     0     0
SMALL
USER_CHARGES

@<TRIPOS>ATOM
      1 C1         -0.0187    1.5258    0.0104 C.3       1 <0>        -0.1373
      2 C2          0.0021   -0.0041    0.0020 C.3       1 <0>        -0.0395
      3 C3          0.7421   -0.5109    1.2415 C.3       1 <0>        -0.1439
      4 C4         -1.4333   -0.5336    0.0129 C.3       1 <0>        -0.1479
      5 C5          0.7074   -0.4901   -1.2379 C.ar      1 <0>        -0.0082
      6 C6          0.0361   -1.2843   -2.1485 C.ar      1 <0>        -0.1427
      7 C7          0.6831   -1.7301   -3.2859 C.ar      1 <0>        -0.0178
      8 C8          2.0014   -1.3813   -3.5127 C.ar      1 <0>        -0.6849
      9 C9          2.6724   -0.5863   -2.6025 C.ar      1 <0>        -0.0182
     10 C10         2.0241   -0.1370   -1.4673 C.ar      1 <0>        -0.1357
     11 S1          2.8264   -1.9505   -4.9618 S.o2      1 <0>         2.6853
     12 O1          4.2169   -1.9365   -4.6694 O.2       1 <0>        -0.9444
     13 O2          2.1477   -3.1268   -5.3801 O.2       1 <0>        -0.9464
     14 N1          2.5798   -0.8164   -6.1431 N.pl3     1 <0>        -1.0006
     15 C11         1.4116   -0.9199   -7.0234 C.3       1 <0>         0.1147
     16 C12         1.7414   -0.2684   -8.3724 C.3       1 <0>        -0.0961
     17 C13         2.1066    1.1785   -8.1178 C.2       1 <0>        -0.0555
     18 C14         1.7743    2.1000   -9.0216 C.2       1 <0>        -0.1147
     19 C15         2.1866    3.4881   -8.7584 C.2       1 <0>         0.1186
     20 C16         3.1434    3.7710   -7.7890 C.2       1 <0>        -0.1972
     21 C17         3.3246    5.1395   -7.7647 C.2       1 <0>         0.0750
     22 N2          2.5410    5.6810   -8.6711 N.2       1 <0>        -0.2901
     23 N3          1.8228    4.6610   -9.3186 N.pl3     1 <0>        -0.3163
     24 C18         0.8970    4.8309  -10.3567 C.ar      1 <0>         0.1388
     25 C19         0.7934    3.8755  -11.3591 C.ar      1 <0>        -0.1021
     26 C20        -0.1196    4.0448  -12.3813 C.ar      1 <0>        -0.1235
     27 C21        -0.9315    5.1665  -12.4071 C.ar      1 <0>         0.1067
     28 C22        -0.8297    6.1204  -11.4084 C.ar      1 <0>        -0.1346
     29 C23         0.0781    5.9520  -10.3813 C.ar      1 <0>        -0.1054
     30 F1         -1.8237    5.3305  -13.4083 F         1 <0>        -0.1261
     31 C24         3.7921    2.6741   -6.9864 C.3       1 <0>        -0.0321
     32 C25         2.7910    1.5282   -6.8225 C.3       1 <0>        -0.0228
     33 C26         3.5264    0.2911   -6.3018 C.3       1 <0>         0.1312
     34 C27         1.7365    1.9257   -5.7877 C.3       1 <0>         0.0759
     35 O3          1.0044    3.0568   -6.2639 O.3       1 <0>        -0.3765
     36 C28        -0.0113    3.5112   -5.3673 C.3       1 <0>         0.0290
     37 C29        -0.7262    4.7190   -5.9765 C.3       1 <0>         0.0023
     38 N4         -1.4384    4.3043   -7.1926 N.4       1 <0>        -0.3929
     39 C30        -2.5765    3.4166   -6.8420 C.3       1 <0>        -0.0088
     40 C31        -3.5113    3.5363   -8.0718 C.3       1 <0>        -0.1435
     41 C32        -3.3765    5.0254   -8.4649 C.3       1 <0>        -0.1426
     42 C33        -2.0357    5.4812   -7.8601 C.3       1 <0>        -0.0187
     43 H1          1.0039    1.9031    0.0027 H         1 <0>         0.0593
     44 H2         -0.5459    1.8868   -0.8726 H         1 <0>         0.0524
     45 H3         -0.5289    1.8773    0.9072 H         1 <0>         0.0657
     46 H4          0.2319   -0.1594    2.1383 H         1 <0>         0.0664
     47 H5          0.7568   -1.6008    1.2356 H         1 <0>         0.0606
     48 H6          1.7647   -0.1336    1.2338 H         1 <0>         0.0605
     49 H7         -1.9605   -0.1726   -0.8702 H         1 <0>         0.0575
     50 H8         -1.4185   -1.6235    0.0069 H         1 <0>         0.0628
     51 H9         -1.9435   -0.1821    0.9097 H         1 <0>         0.0651
     52 H10        -0.9938   -1.5568   -1.9713 H         1 <0>         0.1376
     53 H11         0.1588   -2.3512   -3.9970 H         1 <0>         0.1386
     54 H12         3.7024   -0.3141   -2.7796 H         1 <0>         0.1395
     55 H13         2.5473    0.4872   -0.7580 H         1 <0>         0.1332
     56 H14         1.1627   -1.9699   -7.1768 H         1 <0>         0.1024
     57 H15         0.5651   -0.4062   -6.5677 H         1 <0>         0.0644
     58 H16         2.5827   -0.7846   -8.8348 H         1 <0>         0.0999
     59 H17         0.8721   -0.3189   -9.0280 H         1 <0>         0.0950
     60 H18         1.2240    1.8380   -9.9132 H         1 <0>         0.1333
     61 H19         3.9968    5.6752   -7.1108 H         1 <0>         0.1882
     62 H20         1.4266    3.0009  -11.3395 H         1 <0>         0.1450
     63 H21        -0.2002    3.3022  -13.1613 H         1 <0>         0.1521
     64 H22        -1.4634    6.9947  -11.4305 H         1 <0>         0.1501
     65 H23         0.1541    6.6940   -9.6002 H         1 <0>         0.1437
     66 H24         4.6781    2.3137   -7.5090 H         1 <0>         0.0861
     67 H25         4.0738    3.0566   -6.0053 H         1 <0>         0.0888
     68 H26         3.9841    0.5184   -5.3390 H         1 <0>         0.0930
     69 H27         4.3013    0.0072   -7.0139 H         1 <0>         0.0896
     70 H28         1.0529    1.0920   -5.6268 H         1 <0>         0.0663
     71 H29         2.2271    2.1798   -4.8481 H         1 <0>         0.0677
     72 H30        -0.7311    2.7104   -5.1977 H         1 <0>         0.0701
     73 H31         0.4431    3.7982   -4.4190 H         1 <0>         0.0951
     74 H32        -1.4395    5.1201   -5.2566 H         1 <0>         0.1419
     75 H33         0.0063    5.4859   -6.2281 H         1 <0>         0.1348
     76 H34        -2.2376    2.3885   -6.7150 H         1 <0>         0.1320
     77 H35        -3.0780    3.7715   -5.9416 H         1 <0>         0.1349
     78 H36        -3.1687    2.8913   -8.8809 H         1 <0>         0.0968
     79 H37        -4.5400    3.3010   -7.7988 H         1 <0>         0.1185
     80 H38        -3.3573    5.1300   -9.5497 H         1 <0>         0.1044
     81 H39        -4.1982    5.6039   -8.0427 H         1 <0>         0.1063
     82 H40        -2.2073    6.2739   -7.1318 H         1 <0>         0.1326
     83 H41        -1.3736    5.8360   -8.6499 H         1 <0>         0.1281
     84 H42        -0.8073    3.8307   -7.8214 H         1 <0>         0.4292
@<TRIPOS>BOND
     1    1    2 1
     2    1   43 1
     3    1   44 1
     4    1   45 1
     5    2    3 1
     6    2    4 1
     7    2    5 1
     8    3   46 1
     9    3   47 1
    10    3   48 1
    11    4   49 1
    12    4   50 1
    13    4   51 1
    14    5   10 ar
    15    5    6 ar
    16    6    7 ar
    17    6   52 1
    18    7    8 ar
    19    7   53 1
    20    8    9 ar
    21    8   11 1
    22    9   10 ar
    23    9   54 1
    24   10   55 1
    25   11   12 2
    26   11   13 2
    27   11   14 1
    28   14   33 1
    29   14   15 1
    30   15   16 1
    31   15   56 1
    32   15   57 1
    33   16   17 1
    34   16   58 1
    35   16   59 1
    36   17   32 1
    37   17   18 2
    38   18   19 1
    39   18   60 1
    40   19   23 1
    41   19   20 2
    42   20   21 1
    43   20   31 1
    44   21   22 2
    45   21   61 1
    46   22   23 1
    47   23   24 1
    48   24   29 ar
    49   24   25 ar
    50   25   26 ar
    51   25   62 1
    52   26   27 ar
    53   26   63 1
    54   27   28 ar
    55   27   30 1
    56   28   29 ar
    57   28   64 1
    58   29   65 1
    59   31   32 1
    60   31   66 1
    61   31   67 1
    62   32   33 1
    63   32   34 1
    64   33   68 1
    65   33   69 1
    66   34   35 1
    67   34   70 1
    68   34   71 1
    69   35   36 1
    70   36   37 1
    71   36   72 1
    72   36   73 1
    73   37   38 1
    74   37   74 1
    75   37   75 1
    76   38   42 1
    77   38   39 1
    78   38   84 1
    79   39   40 1
    80   39   76 1
    81   39   77 1
    82   40   41 1
    83   40   78 1
    84   40   79 1
    85   41   42 1
    86   41   80 1
    87   41   81 1
    88   42   82 1
    89   42   83 1
@<TRIPOS>MOLECULE
CHEMBL310180
   45    48     0     0     0
SMALL
USER_CHARGES

@<TRIPOS>ATOM
      1 C1          0.0002    1.4081    0.0065 C.ar      1 <0>        -0.1227
      2 C2          1.1809    2.0886   -0.2253 C.ar      1 <0>        -0.1151
      3 C3          2.3818    1.4041   -0.2394 C.ar      1 <0>        -0.1022
      4 C4          2.4021    0.0392   -0.0212 C.ar      1 <0>        -0.0763
      5 C5          1.2214   -0.6411    0.2115 C.ar      1 <0>        -0.1265
      6 C6          0.0204    0.0431    0.2242 C.ar      1 <0>        -0.1194
      7 C7          3.7112   -0.7071   -0.0376 C.3       1 <0>        -0.0803
      8 C8          4.2327   -0.8535    1.3933 C.3       1 <0>        -0.0063
      9 C9          3.2796   -1.7557    2.1766 C.3       1 <0>        -0.1081
     10 C10         3.1208   -3.0842    1.4269 C.3       1 <0>        -0.1767
     11 C11         4.4915   -3.6712    1.1758 C.2       1 <0>         0.3610
     12 O1          4.7348   -4.8171    1.4692 O.2       1 <0>        -0.4545
     13 C12         5.5528   -2.7913    0.5491 C.3       1 <0>        -0.1680
     14 C13         5.6212   -1.4879    1.3501 C.3       1 <0>        -0.0707
     15 H1          5.9575   -1.7003    2.3650 H         1 <0>         0.0825
     16 C14         6.5816   -0.5038    0.6791 C.3       1 <0>        -0.1170
     17 C15         6.7940    0.6790    1.6224 C.3       1 <0>        -0.0819
     18 C16         5.4770    1.2207    2.1130 C.ar      1 <0>        -0.0551
     19 C17         4.2941    0.5071    2.0299 C.ar      1 <0>        -0.0742
     20 C18         3.1128    1.0554    2.5116 C.ar      1 <0>        -0.0832
     21 C19         3.1056    2.3024    3.0999 C.ar      1 <0>        -0.1479
     22 C20         4.2898    3.0163    3.2110 C.ar      1 <0>         0.1059
     23 C21         5.4739    2.4842    2.6875 C.ar      1 <0>        -0.1501
     24 O2          4.2934    4.2476    3.7862 O.3       1 <0>        -0.5001
     25 H2         -0.9376    1.9436    0.0220 H         1 <0>         0.1192
     26 H3          1.1651    3.1549   -0.3957 H         1 <0>         0.1189
     27 H4          3.3042    1.9356   -0.4212 H         1 <0>         0.1166
     28 H5          1.2372   -1.7075    0.3816 H         1 <0>         0.1220
     29 H6         -0.9020   -0.4885    0.4056 H         1 <0>         0.1203
     30 H7          3.5606   -1.6953   -0.4723 H         1 <0>         0.0817
     31 H8          4.4370   -0.1545   -0.6341 H         1 <0>         0.0812
     32 H9          3.6884   -1.9437    3.1693 H         1 <0>         0.0728
     33 H10         2.3083   -1.2694    2.2666 H         1 <0>         0.0861
     34 H11         2.5324   -3.7757    2.0299 H         1 <0>         0.0923
     35 H12         2.6189   -2.9087    0.4753 H         1 <0>         0.1036
     36 H13         6.5180   -3.2965    0.5844 H         1 <0>         0.0932
     37 H14         5.2875   -2.5743   -0.4856 H         1 <0>         0.1036
     38 H15         7.5351   -0.9952    0.4856 H         1 <0>         0.0752
     39 H16         6.1516   -0.1529   -0.2591 H         1 <0>         0.0745
     40 H17         7.3879    0.3537    2.4766 H         1 <0>         0.0788
     41 H18         7.3306    1.4668    1.0936 H         1 <0>         0.0784
     42 H19         2.1907    0.5000    2.4242 H         1 <0>         0.1269
     43 H20         2.1824    2.7215    3.4720 H         1 <0>         0.1251
     44 H21         6.3965    3.0406    2.7625 H         1 <0>         0.1261
     45 H22         4.4428    4.2350    4.7415 H         1 <0>         0.3904
@<TRIPOS>BOND
     1    1    6 ar
     2    1    2 ar
     3    1   25 1
     4    2    3 ar
     5    2   26 1
     6    3    4 ar
     7    3   27 1
     8    4    5 ar
     9    4    7 1
    10    5    6 ar
    11    5   28 1
    12    6   29 1
    13    7    8 1
    14    7   30 1
    15    7   31 1
    16    8   14 1
    17    8   19 1
    18    8    9 1
    19    9   10 1
    20    9   32 1
    21    9   33 1
    22   10   11 1
    23   10   34 1
    24   10   35 1
    25   11   12 2
    26   11   13 1
    27   13   14 1
    28   13   36 1
    29   13   37 1
    30   14   15 1
    31   14   16 1
    32   16   17 1
    33   16   38 1
    34   16   39 1
    35   17   18 1
    36   17   40 1
    37   17   41 1
    38   18   23 ar
    39   18   19 ar
    40   19   20 ar
    41   20   21 ar
    42   20   42 1
    43   21   22 ar
    44   21   43 1
    45   22   23 ar
    46   22   24 1
    47   23   44 1
    48   24   45 1
@<TRIPOS>MOLECULE
CHEMBL562337
   62    65     0     0     0
SMALL
USER_CHARGES

@<TRIPOS>ATOM
      1 C1         -0.7895    1.7578    0.1304 C.3       1 <0>        -0.1801
      2 C2         -0.5428    0.2479    0.1505 C.3       1 <0>         0.1073
      3 N1         -1.8205   -0.4574    0.0237 N.pl3     1 <0>        -0.9914
      4 C3         -2.3895   -0.7098   -1.3025 C.3       1 <0>         0.0937
      5 C4         -1.7907   -1.9946   -1.8782 C.3       1 <0>         0.0607
      6 C5         -2.3849   -2.2582   -3.2633 C.3       1 <0>         0.1000
      7 N2         -2.1053   -1.1180   -4.1397 N.pl3     1 <0>        -0.7000
      8 C6         -2.6479   -1.0733   -5.4089 C.ar      1 <0>         0.5252
      9 C7         -2.3856    0.0116   -6.2678 C.ar      1 <0>        -0.3337
     10 C8         -1.6306    1.2002   -6.1640 C.2       1 <0>         0.1107
     11 N3         -1.7396    1.8587   -7.2831 N.2       1 <0>        -0.2437
     12 N4         -2.5596    1.1497   -8.1701 N.pl3     1 <0>        -0.3280
     13 C9         -2.9662    0.0021   -7.5510 C.ar      1 <0>         0.3792
     14 N5         -3.7363   -1.0268   -7.9000 N.ar      1 <0>        -0.5647
     15 C10        -3.9523   -2.0177   -7.0629 C.ar      1 <0>         0.4140
     16 N6         -3.4255   -2.0552   -5.8515 N.ar      1 <0>        -0.5949
     17 C11        -4.8317   -3.1590   -7.5048 C.3       1 <0>        -0.0874
     18 C12        -2.9033    1.5488   -9.4679 C.ar      1 <0>         0.1513
     19 C13        -3.0642    0.5990  -10.4682 C.ar      1 <0>        -0.1105
     20 C14        -3.4031    0.9957  -11.7470 C.ar      1 <0>        -0.0995
     21 C15        -3.5818    2.3371  -12.0318 C.ar      1 <0>        -0.1183
     22 C16        -3.4220    3.2853  -11.0380 C.ar      1 <0>        -0.1035
     23 C17        -3.0896    2.8945   -9.7557 C.ar      1 <0>        -0.1115
     24 C18        -2.1155   -3.1684   -0.9521 C.3       1 <0>         0.4819
     25 F1         -3.5018   -3.2652   -0.7907 F         1 <0>        -0.1384
     26 F2         -1.6274   -4.3536   -1.5126 F         1 <0>        -0.1704
     27 F3         -1.5144   -2.9595    0.2938 F         1 <0>        -0.1781
     28 O1         -0.3730   -1.8522   -1.9874 O.3       1 <0>        -0.5187
     29 S1         -2.6217   -0.9694    1.3796 S.o2      1 <0>         2.6904
     30 O2         -3.4568   -2.0458    0.9756 O.2       1 <0>        -0.9450
     31 O3         -1.6441   -1.1058    2.4018 O.2       1 <0>        -0.9412
     32 C19        -3.6919    0.3388    1.8775 C.ar      1 <0>        -0.6987
     33 C20        -3.2380    1.3068    2.7539 C.ar      1 <0>         0.0090
     34 C21        -4.0763    2.3336    3.1448 C.ar      1 <0>        -0.1737
     35 C22        -5.3713    2.3926    2.6583 C.ar      1 <0>         0.1584
     36 C23        -5.8248    1.4225    1.7806 C.ar      1 <0>        -0.1739
     37 C24        -4.9830    0.3996    1.3870 C.ar      1 <0>         0.0091
     38 F4         -6.1918    3.3956    3.0401 F         1 <0>        -0.1271
     39 H1          0.1612    2.2826    0.2247 H         1 <0>         0.0753
     40 H2         -1.2662    2.0356   -0.8097 H         1 <0>         0.0606
     41 H3         -1.4393    2.0308    0.9619 H         1 <0>         0.0558
     42 H4          0.1070   -0.0251   -0.6810 H         1 <0>         0.0932
     43 H5         -0.0661   -0.0299    1.0905 H         1 <0>         0.0997
     44 H6         -3.4709   -0.8184   -1.2192 H         1 <0>         0.1113
     45 H7         -2.1581    0.1264   -1.9623 H         1 <0>         0.1070
     46 H8         -1.9383   -3.1587   -3.6849 H         1 <0>         0.1022
     47 H9         -3.4630   -2.3938   -3.1763 H         1 <0>         0.1051
     48 H10        -1.5390   -0.3946   -3.8285 H         1 <0>         0.4092
     49 H11        -1.0592    1.5114   -5.3020 H         1 <0>         0.1979
     50 H12        -4.2203   -3.9257   -7.9806 H         1 <0>         0.0922
     51 H13        -5.3380   -3.5841   -6.6382 H         1 <0>         0.0917
     52 H14        -5.5729   -2.7926   -8.2151 H         1 <0>         0.0899
     53 H15        -2.9240   -0.4486  -10.2465 H         1 <0>         0.1350
     54 H16        -3.5283    0.2576  -12.5253 H         1 <0>         0.1338
     55 H17        -3.8465    2.6448  -13.0326 H         1 <0>         0.1302
     56 H18        -3.5619    4.3321  -11.2637 H         1 <0>         0.1329
     57 H19        -2.9700    3.6351   -8.9788 H         1 <0>         0.1319
     58 H20        -0.0937   -1.1253   -2.5608 H         1 <0>         0.3891
     59 H21        -2.2280    1.2604    3.1336 H         1 <0>         0.1501
     60 H22        -3.7216    3.0895    3.8298 H         1 <0>         0.1483
     61 H23        -6.8348    1.4674    1.4007 H         1 <0>         0.1481
     62 H24        -5.3350   -0.3547    0.6989 H         1 <0>         0.1509
@<TRIPOS>BOND
     1    1    2 1
     2    1   39 1
     3    1   40 1
     4    1   41 1
     5    2    3 1
     6    2   42 1
     7    2   43 1
     8    3    4 1
     9    3   29 1
    10    4    5 1
    11    4   44 1
    12    4   45 1
    13    5    6 1
    14    5   24 1
    15    5   28 1
    16    6    7 1
    17    6   46 1
    18    6   47 1
    19    7    8 1
    20    7   48 1
    21    8   16 ar
    22    8    9 ar
    23    9   13 ar
    24    9   10 1
    25   10   11 2
    26   10   49 1
    27   11   12 1
    28   12   13 1
    29   12   18 1
    30   13   14 ar
    31   14   15 ar
    32   15   16 ar
    33   15   17 1
    34   17   50 1
    35   17   51 1
    36   17   52 1
    37   18   23 ar
    38   18   19 ar
    39   19   20 ar
    40   19   53 1
    41   20   21 ar
    42   20   54 1
    43   21   22 ar
    44   21   55 1
    45   22   23 ar
    46   22   56 1
    47   23   57 1
    48   24   25 1
    49   24   26 1
    50   24   27 1
    51   28   58 1
    52   29   30 2
    53   29   31 2
    54   29   32 1
    55   32   37 ar
    56   32   33 ar
    57   33   34 ar
    58   33   59 1
    59   34   35 ar
    60   34   60 1
    61   35   36 ar
    62   35   38 1
    63   36   37 ar
    64   36   61 1
    65   37   62 1
@<TRIPOS>MOLECULE
CHEMBL562337__1
   62    65     0     0     0
SMALL
USER_CHARGES

@<TRIPOS>ATOM
      1 C1         -4.4483   -0.2780    1.0914 C.3       1 <0>        -0.1775
      2 C2         -4.3290   -1.1810   -0.1379 C.3       1 <0>         0.0926
      3 N1         -3.5642   -0.4901   -1.1791 N.pl3     1 <0>        -0.9982
      4 C3         -2.1010   -0.5625   -1.1830 C.3       1 <0>         0.0975
      5 C4         -1.6559   -1.8496   -1.8804 C.3       1 <0>         0.0592
      6 C5         -2.1660   -1.8506   -3.3228 C.3       1 <0>         0.0997
      7 N2         -1.7398   -3.0829   -3.9906 N.pl3     1 <0>        -0.6998
      8 C6         -2.0849   -3.3089   -5.3086 C.ar      1 <0>         0.5224
      9 C7         -1.6894   -4.4903   -5.9656 C.ar      1 <0>        -0.3341
     10 C8         -0.9497   -5.6337   -5.5928 C.2       1 <0>         0.1151
     11 N3         -0.8847   -6.4365   -6.6170 N.2       1 <0>        -0.2478
     12 N4         -1.5677   -5.8734   -7.7024 N.pl3     1 <0>        -0.3308
     13 C9         -2.0711   -4.6658   -7.3099 C.ar      1 <0>         0.3787
     14 N5         -2.7873   -3.7130   -7.9040 N.ar      1 <0>        -0.5682
     15 C10        -3.1331   -2.6265   -7.2490 C.ar      1 <0>         0.4118
     16 N6         -2.8028   -2.4199   -5.9862 N.ar      1 <0>        -0.5919
     17 C11        -3.9432   -1.5771   -7.9656 C.3       1 <0>        -0.0873
     18 C12        -1.7099   -6.4491   -8.9712 C.ar      1 <0>         0.1553
     19 C13        -2.8794   -6.2574   -9.6952 C.ar      1 <0>        -0.1116
     20 C14        -3.0165   -6.8265  -10.9461 C.ar      1 <0>        -0.0998
     21 C15        -1.9911   -7.5869  -11.4776 C.ar      1 <0>        -0.1206
     22 C16        -0.8254   -7.7800  -10.7591 C.ar      1 <0>        -0.1036
     23 C17        -0.6795   -7.2081   -9.5104 C.ar      1 <0>        -0.1127
     24 C18        -0.1279   -1.9278   -1.8797 C.3       1 <0>         0.4763
     25 F1          0.3450   -1.8011   -0.5692 F         1 <0>        -0.1671
     26 F2          0.2762   -3.1602   -2.4042 F         1 <0>        -0.1679
     27 F3          0.3923   -0.8936   -2.6652 F         1 <0>        -0.1633
     28 O1         -2.1909   -2.9776   -1.1851 O.3       1 <0>        -0.5288
     29 S1         -4.3536    0.3727   -2.3515 S.o2      1 <0>         2.6803
     30 O2         -3.4769    0.4373   -3.4679 O.2       1 <0>        -0.9323
     31 O3         -5.6638   -0.1698   -2.4422 O.2       1 <0>        -0.9407
     32 C19        -4.5312    2.0210   -1.7547 C.ar      1 <0>        -0.6946
     33 C20        -5.6497    2.3738   -1.0227 C.ar      1 <0>         0.0095
     34 C21        -5.7898    3.6662   -0.5536 C.ar      1 <0>        -0.1732
     35 C22        -4.8096    4.6078   -0.8172 C.ar      1 <0>         0.1611
     36 C23        -3.6899    4.2534   -1.5504 C.ar      1 <0>        -0.1728
     37 C24        -3.5493    2.9590   -2.0139 C.ar      1 <0>         0.0103
     38 F4         -4.9458    5.8717   -0.3595 F         1 <0>        -0.1261
     39 H1         -5.0173   -0.7920    1.8660 H         1 <0>         0.0770
     40 H2         -3.4526   -0.0429    1.4675 H         1 <0>         0.0657
     41 H3         -4.9599    0.6444    0.8164 H         1 <0>         0.0573
     42 H4         -3.8174   -2.1034    0.1371 H         1 <0>         0.0959
     43 H5         -5.3247   -1.4161   -0.5141 H         1 <0>         0.1039
     44 H6         -1.6960    0.2980   -1.7155 H         1 <0>         0.1118
     45 H7         -1.7343   -0.5601   -0.1565 H         1 <0>         0.1184
     46 H8         -3.2546   -1.7948   -3.3233 H         1 <0>         0.0816
     47 H9         -1.7579   -0.9902   -3.8532 H         1 <0>         0.1207
     48 H10        -1.2153   -3.7401   -3.5071 H         1 <0>         0.4188
     49 H11        -0.5112   -5.8126   -4.6222 H         1 <0>         0.1983
     50 H12        -5.0051   -1.7843   -7.8326 H         1 <0>         0.0905
     51 H13        -3.7104   -0.5948   -7.5545 H         1 <0>         0.0923
     52 H14        -3.7002   -1.5932   -9.0280 H         1 <0>         0.0888
     53 H15        -3.6809   -5.6643   -9.2803 H         1 <0>         0.1350
     54 H16        -3.9258   -6.6779  -11.5096 H         1 <0>         0.1329
     55 H17        -2.1009   -8.0312  -12.4559 H         1 <0>         0.1292
     56 H18        -0.0265   -8.3746  -11.1768 H         1 <0>         0.1321
     57 H19         0.2332   -7.3549   -8.9519 H         1 <0>         0.1319
     58 H20        -3.1570   -2.9936   -1.1461 H         1 <0>         0.3976
     59 H21        -6.4143    1.6392   -0.8175 H         1 <0>         0.1504
     60 H22        -6.6638    3.9416    0.0179 H         1 <0>         0.1490
     61 H23        -2.9248    4.9872   -1.7568 H         1 <0>         0.1494
     62 H24        -2.6739    2.6812   -2.5821 H         1 <0>         0.1522
@<TRIPOS>BOND
     1    1    2 1
     2    1   39 1
     3    1   40 1
     4    1   41 1
     5    2    3 1
     6    2   42 1
     7    2   43 1
     8    3    4 1
     9    3   29 1
    10    4    5 1
    11    4   44 1
    12    4   45 1
    13    5    6 1
    14    5   24 1
    15    5   28 1
    16    6    7 1
    17    6   46 1
    18    6   47 1
    19    7    8 1
    20    7   48 1
    21    8   16 ar
    22    8    9 ar
    23    9   13 ar
    24    9   10 1
    25   10   11 2
    26   10   49 1
    27   11   12 1
    28   12   13 1
    29   12   18 1
    30   13   14 ar
    31   14   15 ar
    32   15   16 ar
    33   15   17 1
    34   17   50 1
    35   17   51 1
    36   17   52 1
    37   18   23 ar
    38   18   19 ar
    39   19   20 ar
    40   19   53 1
    41   20   21 ar
    42   20   54 1
    43   21   22 ar
    44   21   55 1
    45   22   23 ar
    46   22   56 1
    47   23   57 1
    48   24   25 1
    49   24   26 1
    50   24   27 1
    51   28   58 1
    52   29   30 2
    53   29   31 2
    54   29   32 1
    55   32   37 ar
    56   32   33 ar
    57   33   34 ar
    58   33   59 1
    59   34   35 ar
    60   34   60 1
    61   35   36 ar
    62   35   38 1
    63   36   37 ar
    64   36   61 1
    65   37   62 1
@<TRIPOS>MOLECULE
CHEMBL302147
   52    56     0     0     0
SMALL
USER_CHARGES

@<TRIPOS>ATOM
      1 C1         -0.4846    1.3970    0.2854 C.3       1 <0>         0.0198
      2 O1         -0.3171   -0.0188    0.1867 O.3       1 <0>        -0.3060
      3 C2          0.4587   -0.6153    1.1290 C.ar      1 <0>         0.1717
      4 C3          1.0439    0.1425    2.1335 C.ar      1 <0>        -0.2311
      5 C4          1.8348   -0.4666    3.0899 C.ar      1 <0>        -0.0441
      6 C5          2.0607   -1.8308    3.0513 C.ar      1 <0>        -0.1759
      7 C6          1.4893   -2.6008    2.0530 C.ar      1 <0>         0.1680
      8 C7          0.6668   -1.9909    1.0965 C.ar      1 <0>        -0.1472
      9 C8          0.0484   -2.8475    0.0587 C.ar      1 <0>        -0.0342
     10 C9         -0.5460   -2.3063   -1.0748 C.ar      1 <0>        -0.0799
     11 C10        -1.0931   -3.1448   -2.0251 C.ar      1 <0>        -0.1109
     12 C11        -1.0472   -4.5226   -1.8472 C.ar      1 <0>         0.1460
     13 C12        -0.4593   -5.0641   -0.7093 C.ar      1 <0>        -0.1202
     14 C13         0.0791   -4.2320    0.2461 C.ar      1 <0>        -0.1024
     15 C14         0.6772   -4.7888    1.5114 C.3       1 <0>         0.1875
     16 O2          1.7265   -3.9347    1.9820 O.3       1 <0>        -0.3007
     17 C15         1.2433   -6.1577    1.2344 C.ar      1 <0>        -0.0851
     18 C16         2.5249   -6.2872    0.7328 C.ar      1 <0>        -0.0863
     19 C17         3.0441   -7.5428    0.4787 C.ar      1 <0>        -0.1193
     20 C18         2.2819   -8.6691    0.7267 C.ar      1 <0>        -0.1126
     21 C19         1.0007   -8.5397    1.2291 C.ar      1 <0>        -0.1197
     22 C20         0.4830   -7.2842    1.4872 C.ar      1 <0>        -0.1084
     23 N1         -1.5952   -5.3680   -2.8168 N.am      1 <0>        -0.6688
     24 C21        -1.5478   -5.0208   -4.1182 C.2       1 <0>         0.5600
     25 O3         -0.9454   -4.0214   -4.4591 O.2       1 <0>        -0.5123
     26 C22        -2.2283   -5.8550   -5.1309 C.ar      1 <0>        -0.1389
     27 C23        -2.9258   -7.0000   -4.7422 C.ar      1 <0>        -0.0860
     28 C24        -3.5591   -7.7740   -5.6925 C.ar      1 <0>        -0.1263
     29 C25        -3.5041   -7.4175   -7.0283 C.ar      1 <0>        -0.0896
     30 C26        -2.8141   -6.2841   -7.4204 C.ar      1 <0>        -0.1262
     31 C27        -2.1812   -5.4982   -6.4797 C.ar      1 <0>        -0.0564
     32 H1          0.4881    1.8837    0.2149 H         1 <0>         0.0591
     33 H2         -1.1244    1.7446   -0.5257 H         1 <0>         0.1030
     34 H3         -0.9453    1.6425    1.2423 H         1 <0>         0.0588
     35 H4          0.8815    1.2097    2.1680 H         1 <0>         0.1344
     36 H5          2.2804    0.1279    3.8738 H         1 <0>         0.1354
     37 H6          2.6841   -2.2956    3.8008 H         1 <0>         0.1365
     38 H7         -0.5799   -1.2355   -1.2114 H         1 <0>         0.1519
     39 H8         -1.5575   -2.7299   -2.9074 H         1 <0>         0.1379
     40 H9         -0.4253   -6.1352   -0.5752 H         1 <0>         0.1320
     41 H10        -0.0997   -4.8706    2.2715 H         1 <0>         0.0919
     42 H11         3.1204   -5.4072    0.5390 H         1 <0>         0.1266
     43 H12         4.0452   -7.6439    0.0861 H         1 <0>         0.1249
     44 H13         2.6874   -9.6501    0.5275 H         1 <0>         0.1240
     45 H14         0.4051   -9.4196    1.4225 H         1 <0>         0.1263
     46 H15        -0.5167   -7.1832    1.8833 H         1 <0>         0.1253
     47 H16        -2.0094   -6.2045   -2.5528 H         1 <0>         0.4100
     48 H17        -2.9692   -7.2795   -3.6999 H         1 <0>         0.1253
     49 H18        -4.0988   -8.6603   -5.3931 H         1 <0>         0.1314
     50 H19        -4.0017   -8.0269   -7.7682 H         1 <0>         0.1299
     51 H20        -2.7747   -6.0116   -8.4647 H         1 <0>         0.1327
     52 H21        -1.6471   -4.6111   -6.7865 H         1 <0>         0.1379
@<TRIPOS>BOND
     1    1    2 1
     2    1   32 1
     3    1   33 1
     4    1   34 1
     5    2    3 1
     6    3    8 ar
     7    3    4 ar
     8    4    5 ar
     9    4   35 1
    10    5    6 ar
    11    5   36 1
    12    6    7 ar
    13    6   37 1
    14    7   16 1
    15    7    8 ar
    16    8    9 1
    17    9   14 ar
    18    9   10 ar
    19   10   11 ar
    20   10   38 1
    21   11   12 ar
    22   11   39 1
    23   12   13 ar
    24   12   23 1
    25   13   14 ar
    26   13   40 1
    27   14   15 1
    28   15   16 1
    29   15   17 1
    30   15   41 1
    31   17   22 ar
    32   17   18 ar
    33   18   19 ar
    34   18   42 1
    35   19   20 ar
    36   19   43 1
    37   20   21 ar
    38   20   44 1
    39   21   22 ar
    40   21   45 1
    41   22   46 1
    42   23   24 am
    43   23   47 1
    44   24   25 2
    45   24   26 1
    46   26   31 ar
    47   26   27 ar
    48   27   28 ar
    49   27   48 1
    50   28   29 ar
    51   28   49 1
    52   29   30 ar
    53   29   50 1
    54   30   31 ar
    55   30   51 1
    56   31   52 1
@<TRIPOS>MOLECULE
CHEMBL302147__1
   52    56     0     0     0
SMALL
USER_CHARGES

@<TRIPOS>ATOM
      1 C1         -0.4846    1.3970    0.2854 C.3       1 <0>         0.0196
      2 O1         -0.3171   -0.0188    0.1867 O.3       1 <0>        -0.3054
      3 C2          0.4587   -0.6153    1.1290 C.ar      1 <0>         0.1720
      4 C3          1.0439    0.1425    2.1335 C.ar      1 <0>        -0.2324
      5 C4          1.8341   -0.4667    3.0904 C.ar      1 <0>        -0.0433
      6 C5          2.0600   -1.8309    3.0518 C.ar      1 <0>        -0.1805
      7 C6          1.4886   -2.6010    2.0536 C.ar      1 <0>         0.1708
      8 C7          0.6668   -1.9909    1.0965 C.ar      1 <0>        -0.1488
      9 C8          0.0484   -2.8475    0.0587 C.ar      1 <0>        -0.0317
     10 C9         -0.5460   -2.3063   -1.0748 C.ar      1 <0>        -0.0789
     11 C10        -1.0931   -3.1448   -2.0251 C.ar      1 <0>        -0.1112
     12 C11        -1.0472   -4.5226   -1.8472 C.ar      1 <0>         0.1476
     13 C12        -0.4593   -5.0641   -0.7093 C.ar      1 <0>        -0.1237
     14 C13         0.0791   -4.2320    0.2461 C.ar      1 <0>        -0.0986
     15 C14         0.6772   -4.7888    1.5114 C.3       1 <0>         0.1863
     16 O2          1.7250   -3.9350    1.9831 O.3       1 <0>        -0.2961
     17 C15        -0.3969   -4.9019    2.5624 C.ar      1 <0>        -0.1138
     18 C16        -0.7895   -3.7828    3.2725 C.ar      1 <0>        -0.1060
     19 C17        -1.7747   -3.8864    4.2366 C.ar      1 <0>        -0.1166
     20 C18        -2.3677   -5.1091    4.4902 C.ar      1 <0>        -0.1136
     21 C19        -1.9758   -6.2280    3.7793 C.ar      1 <0>        -0.1192
     22 C20        -0.9935   -6.1235    2.8123 C.ar      1 <0>        -0.1031
     23 N1         -1.5952   -5.3680   -2.8168 N.am      1 <0>        -0.6692
     24 C21        -1.5478   -5.0208   -4.1182 C.2       1 <0>         0.5600
     25 O3         -0.9454   -4.0214   -4.4591 O.2       1 <0>        -0.5120
     26 C22        -2.2283   -5.8550   -5.1309 C.ar      1 <0>        -0.1392
     27 C23        -2.9258   -7.0000   -4.7422 C.ar      1 <0>        -0.0860
     28 C24        -3.5591   -7.7740   -5.6925 C.ar      1 <0>        -0.1264
     29 C25        -3.5041   -7.4175   -7.0283 C.ar      1 <0>        -0.0895
     30 C26        -2.8141   -6.2841   -7.4204 C.ar      1 <0>        -0.1261
     31 C27        -2.1812   -5.4982   -6.4797 C.ar      1 <0>        -0.0564
     32 H1          0.4881    1.8837    0.2149 H         1 <0>         0.0594
     33 H2         -1.1244    1.7446   -0.5257 H         1 <0>         0.1030
     34 H3         -0.9453    1.6425    1.2423 H         1 <0>         0.0588
     35 H4          0.8815    1.2097    2.1680 H         1 <0>         0.1348
     36 H5          2.2791    0.1276    3.8747 H         1 <0>         0.1357
     37 H6          2.6828   -2.2958    3.8017 H         1 <0>         0.1370
     38 H7         -0.5799   -1.2355   -1.2114 H         1 <0>         0.1518
     39 H8         -1.5575   -2.7299   -2.9074 H         1 <0>         0.1379
     40 H9         -0.4253   -6.1352   -0.5752 H         1 <0>         0.1304
     41 H10         1.0866   -5.7789    1.3110 H         1 <0>         0.1323
     42 H11        -0.3262   -2.8275    3.0744 H         1 <0>         0.1264
     43 H12        -2.0810   -3.0122    4.7919 H         1 <0>         0.1230
     44 H13        -3.1370   -5.1902    5.2439 H         1 <0>         0.1236
     45 H14        -2.4388   -7.1834    3.9777 H         1 <0>         0.1252
     46 H15        -0.6899   -6.9970    2.2543 H         1 <0>         0.1244
     47 H16        -2.0094   -6.2045   -2.5528 H         1 <0>         0.4103
     48 H17        -2.9692   -7.2795   -3.6999 H         1 <0>         0.1255
     49 H18        -4.0988   -8.6603   -5.3931 H         1 <0>         0.1314
     50 H19        -4.0017   -8.0269   -7.7682 H         1 <0>         0.1299
     51 H20        -2.7747   -6.0116   -8.4647 H         1 <0>         0.1328
     52 H21        -1.6471   -4.6111   -6.7865 H         1 <0>         0.1380
@<TRIPOS>BOND
     1    1    2 1
     2    1   32 1
     3    1   33 1
     4    1   34 1
     5    2    3 1
     6    3    8 ar
     7    3    4 ar
     8    4    5 ar
     9    4   35 1
    10    5    6 ar
    11    5   36 1
    12    6    7 ar
    13    6   37 1
    14    7   16 1
    15    7    8 ar
    16    8    9 1
    17    9   14 ar
    18    9   10 ar
    19   10   11 ar
    20   10   38 1
    21   11   12 ar
    22   11   39 1
    23   12   13 ar
    24   12   23 1
    25   13   14 ar
    26   13   40 1
    27   14   15 1
    28   15   16 1
    29   15   17 1
    30   15   41 1
    31   17   22 ar
    32   17   18 ar
    33   18   19 ar
    34   18   42 1
    35   19   20 ar
    36   19   43 1
    37   20   21 ar
    38   20   44 1
    39   21   22 ar
    40   21   45 1
    41   22   46 1
    42   23   24 am
    43   23   47 1
    44   24   25 2
    45   24   26 1
    46   26   31 ar
    47   26   27 ar
    48   27   28 ar
    49   27   48 1
    50   28   29 ar
    51   28   49 1
    52   29   30 ar
    53   29   50 1
    54   30   31 ar
    55   30   51 1
    56   31   52 1
@<TRIPOS>MOLECULE
CHEMBL228274
   48    50     0     0     0
SMALL
USER_CHARGES

@<TRIPOS>ATOM
      1 C1         -0.0187    1.5258    0.0104 C.3       1 <0>        -0.1435
      2 C2          0.0021   -0.0041    0.0020 C.3       1 <0>        -0.1005
      3 H1         -0.9839   -0.4399   -0.1596 H         1 <0>         0.0967
      4 C3          1.0947   -0.6004   -0.9010 C.3       1 <0>        -0.1004
      5 H2          1.9456    0.0636   -1.0535 H         1 <0>         0.0968
      6 C4          1.3217   -1.6498    0.1999 C.3       1 <0>        -0.0590
      7 H3          0.6968   -2.5365    0.0934 H         1 <0>         0.1011
      8 C5          0.7586   -0.6164    1.1926 C.3       1 <0>        -0.0591
      9 H4          1.5175    0.0431    1.6136 H         1 <0>         0.1013
     10 C6         -0.1457   -1.2138    2.2397 C.ar      1 <0>        -0.0350
     11 C7         -1.2590   -1.9388    1.8573 C.ar      1 <0>        -0.1387
     12 C8         -2.0917   -2.4888    2.8140 C.ar      1 <0>        -0.1030
     13 C9         -1.8109   -2.3144    4.1596 C.ar      1 <0>         0.0686
     14 C10        -0.6901   -1.5851    4.5446 C.ar      1 <0>         0.1060
     15 C11         0.1430   -1.0405    3.5805 C.ar      1 <0>        -0.1892
     16 O1         -0.4103   -1.4112    5.8640 O.3       1 <0>        -0.3080
     17 C12         0.7566   -0.6514    6.1851 C.3       1 <0>         0.0249
     18 O2         -2.6293   -2.8544    5.1021 O.3       1 <0>        -0.4869
     19 C13         2.7740   -1.9813    0.4277 C.ar      1 <0>        -0.0351
     20 C14         3.7213   -0.9743    0.4168 C.ar      1 <0>        -0.1387
     21 C15         5.0548   -1.2732    0.6253 C.ar      1 <0>        -0.1031
     22 C16         5.4445   -2.5844    0.8463 C.ar      1 <0>         0.0686
     23 C17         4.4910   -3.5979    0.8577 C.ar      1 <0>         0.1060
     24 C18         3.1554   -3.2908    0.6528 C.ar      1 <0>        -0.1891
     25 O3          4.8686   -4.8864    1.0741 O.3       1 <0>        -0.3080
     26 C19         3.8359   -5.8741    1.0721 C.3       1 <0>         0.0248
     27 O4          6.7560   -2.8803    1.0510 O.3       1 <0>        -0.4868
     28 C20         0.5571   -1.1868   -2.2079 C.3       1 <0>        -0.1434
     29 H5          1.0039    1.9031    0.0027 H         1 <0>         0.0558
     30 H6         -0.5459    1.8868   -0.8726 H         1 <0>         0.0585
     31 H7         -0.5289    1.8773    0.9072 H         1 <0>         0.0575
     32 H8         -1.4789   -2.0754    0.8088 H         1 <0>         0.1283
     33 H9         -2.9612   -3.0540    2.5126 H         1 <0>         0.1359
     34 H10         1.0157   -0.4773    3.8766 H         1 <0>         0.1308
     35 H11         1.6350   -1.1379    5.7612 H         1 <0>         0.0552
     36 H12         0.6619    0.3524    5.7710 H         1 <0>         0.0563
     37 H13         0.8629   -0.5891    7.2681 H         1 <0>         0.1021
     38 H14        -2.3833   -3.7504    5.3698 H         1 <0>         0.3860
     39 H15         3.4188    0.0481    0.2447 H         1 <0>         0.1283
     40 H16         5.7928   -0.4848    0.6156 H         1 <0>         0.1359
     41 H17         2.4130   -4.0750    0.6649 H         1 <0>         0.1308
     42 H18         3.1128   -5.6453    1.8550 H         1 <0>         0.0552
     43 H19         3.3352   -5.8743    0.1039 H         1 <0>         0.0563
     44 H20         4.2719   -6.8560    1.2558 H         1 <0>         0.1021
     45 H21         7.0252   -2.8521    1.9794 H         1 <0>         0.3860
     46 H22         0.3726   -0.3814   -2.9188 H         1 <0>         0.0587
     47 H23         1.2897   -1.8783   -2.6243 H         1 <0>         0.0575
     48 H24        -0.3739   -1.7187   -2.0116 H         1 <0>         0.0558
@<TRIPOS>BOND
     1    1    2 1
     2    1   29 1
     3    1   30 1
     4    1   31 1
     5    2    3 1
     6    2    8 1
     7    2    4 1
     8    4    5 1
     9    4    6 1
    10    4   28 1
    11    6    7 1
    12    6    8 1
    13    6   19 1
    14    8    9 1
    15    8   10 1
    16   10   15 ar
    17   10   11 ar
    18   11   12 ar
    19   11   32 1
    20   12   13 ar
    21   12   33 1
    22   13   14 ar
    23   13   18 1
    24   14   15 ar
    25   14   16 1
    26   15   34 1
    27   16   17 1
    28   17   35 1
    29   17   36 1
    30   17   37 1
    31   18   38 1
    32   19   24 ar
    33   19   20 ar
    34   20   21 ar
    35   20   39 1
    36   21   22 ar
    37   21   40 1
    38   22   23 ar
    39   22   27 1
    40   23   24 ar
    41   23   25 1
    42   24   41 1
    43   25   26 1
    44   26   42 1
    45   26   43 1
    46   26   44 1
    47   27   45 1
    48   28   46 1
    49   28   47 1
    50   28   48 1
@<TRIPOS>MOLECULE
CHEMBL48308
   64    68     0     0     0
SMALL
USER_CHARGES

@<TRIPOS>ATOM
      1 C1         -0.0184    1.5033    0.0103 C.3       1 <0>        -0.1227
      2 C2          0.0021   -0.0041    0.0020 C.2       1 <0>        -0.0577
      3 C3         -0.0873   -0.6025   -1.1867 C.2       1 <0>        -0.1781
      4 C4         -0.0486   -2.0997   -1.3076 C.3       1 <0>         0.2135
      5 N1          0.7636   -2.6522   -0.2178 N.pl3     1 <0>        -0.7343
      6 C5          0.6158   -2.1285    1.0658 C.ar      1 <0>         0.2219
      7 C6          0.1321   -0.8086    1.2249 C.ar      1 <0>        -0.0981
      8 C7         -0.2815   -0.4203    2.4923 C.ar      1 <0>        -0.0574
      9 C8          0.2024   -1.1290    3.6016 C.ar      1 <0>        -0.0741
     10 C9          0.8390   -2.3522    3.4334 C.ar      1 <0>        -0.0453
     11 C10         1.0256   -2.8611    2.1634 C.ar      1 <0>        -0.1878
     12 C11         0.0708   -0.5221    4.9472 C.ar      1 <0>        -0.1409
     13 C12        -0.9177    0.4594    5.1129 C.ar      1 <0>         0.1745
     14 C13        -1.0958    1.0639    6.3455 C.ar      1 <0>        -0.1834
     15 C14        -0.3097    0.6921    7.4201 C.ar      1 <0>        -0.0462
     16 C15         0.6627   -0.2759    7.2665 C.ar      1 <0>        -0.2411
     17 C16         0.8641   -0.8792    6.0294 C.ar      1 <0>         0.1693
     18 O1          1.8641   -1.7917    5.9107 O.3       1 <0>        -0.3104
     19 C17         2.6183   -2.0847    7.0886 C.3       1 <0>         0.0244
     20 O2         -1.6990    0.7899    4.0669 O.3       1 <0>        -0.3020
     21 C18        -1.2226    0.7266    2.7270 C.3       1 <0>         0.1560
     22 C19        -2.4608    0.5378    1.8483 C.3       1 <0>        -0.0369
     23 C20        -3.3282    1.8013    1.9344 C.3       1 <0>        -0.1228
     24 C21        -4.2883    1.8620    0.7485 C.3       1 <0>        -0.1191
     25 C22        -4.8290    0.5020    0.3561 C.3       1 <0>        -0.1330
     26 C23        -5.9898    0.2052    1.3006 C.3       1 <0>        -0.1134
     27 C24        -5.4639    0.0855    2.7398 C.3       1 <0>        -0.1079
     28 C25        -4.3636   -0.9538    2.7207 C.2       1 <0>        -0.1364
     29 C26        -3.1855   -0.6815    2.2939 C.2       1 <0>        -0.1364
     30 C27         0.5728   -2.4874   -2.6514 C.3       1 <0>        -0.1532
     31 C28        -1.4691   -2.6607   -1.2252 C.3       1 <0>        -0.1574
     32 H1          0.4979    1.8687    0.8980 H         1 <0>         0.0650
     33 H2          0.4831    1.8783   -0.8819 H         1 <0>         0.0707
     34 H3         -1.0508    1.8526    0.0208 H         1 <0>         0.0749
     35 H4         -0.1894    0.0054   -2.0725 H         1 <0>         0.1235
     36 H5          1.3940   -3.3724   -0.3882 H         1 <0>         0.4018
     37 H6          1.1645   -2.9331    4.2815 H         1 <0>         0.1352
     38 H7          1.4897   -3.8271    2.0280 H         1 <0>         0.1246
     39 H8         -1.8510    1.8267    6.4671 H         1 <0>         0.1332
     40 H9         -0.4575    1.1598    8.3819 H         1 <0>         0.1324
     41 H10         1.2721   -0.5688    8.1089 H         1 <0>         0.1321
     42 H11         3.3824   -2.8262    6.8557 H         1 <0>         0.1010
     43 H12         3.0945   -1.1737    7.4511 H         1 <0>         0.0575
     44 H13         1.9531   -2.4776    7.8575 H         1 <0>         0.0575
     45 H14        -0.7434    1.6700    2.4832 H         1 <0>         0.0863
     46 H15        -2.1418    0.4006    0.8151 H         1 <0>         0.1043
     47 H16        -3.9004    1.7842    2.8620 H         1 <0>         0.0838
     48 H17        -2.6859    2.6819    1.9247 H         1 <0>         0.0642
     49 H18        -5.1249    2.5111    1.0070 H         1 <0>         0.0620
     50 H19        -3.7646    2.2914   -0.1055 H         1 <0>         0.0544
     51 H20        -5.1828    0.5243   -0.6747 H         1 <0>         0.0606
     52 H21        -4.0529   -0.2550    0.4691 H         1 <0>         0.0807
     53 H22        -6.7181    1.0142    1.2462 H         1 <0>         0.0617
     54 H23        -6.4651   -0.7313    1.0086 H         1 <0>         0.0569
     55 H24        -5.0648    1.0441    3.0713 H         1 <0>         0.0866
     56 H25        -6.2667   -0.2344    3.4041 H         1 <0>         0.0626
     57 H26        -4.5764   -1.9513    3.0759 H         1 <0>         0.1059
     58 H27        -2.5611   -1.5614    2.2456 H         1 <0>         0.0737
     59 H28         1.5868   -2.0919   -2.7105 H         1 <0>         0.0629
     60 H29         0.6007   -3.5736   -2.7388 H         1 <0>         0.0630
     61 H30        -0.0267   -2.0730   -3.4620 H         1 <0>         0.0743
     62 H31        -2.0702   -2.2483   -2.0356 H         1 <0>         0.0660
     63 H32        -1.4365   -3.7466   -1.3133 H         1 <0>         0.0589
     64 H33        -1.9129   -2.3870   -0.2681 H         1 <0>         0.0581
@<TRIPOS>BOND
     1    1    2 1
     2    1   32 1
     3    1   33 1
     4    1   34 1
     5    2    7 1
     6    2    3 2
     7    3    4 1
     8    3   35 1
     9    4    5 1
    10    4   30 1
    11    4   31 1
    12    5    6 1
    13    5   36 1
    14    6   11 ar
    15    6    7 ar
    16    7    8 ar
    17    8   21 1
    18    8    9 ar
    19    9   10 ar
    20    9   12 1
    21   10   11 ar
    22   10   37 1
    23   11   38 1
    24   12   17 ar
    25   12   13 ar
    26   13   14 ar
    27   13   20 1
    28   14   15 ar
    29   14   39 1
    30   15   16 ar
    31   15   40 1
    32   16   17 ar
    33   16   41 1
    34   17   18 1
    35   18   19 1
    36   19   42 1
    37   19   43 1
    38   19   44 1
    39   20   21 1
    40   21   22 1
    41   21   45 1
    42   22   29 1
    43   22   23 1
    44   22   46 1
    45   23   24 1
    46   23   47 1
    47   23   48 1
    48   24   25 1
    49   24   49 1
    50   24   50 1
    51   25   26 1
    52   25   51 1
    53   25   52 1
    54   26   27 1
    55   26   53 1
    56   26   54 1
    57   27   28 1
    58   27   55 1
    59   27   56 1
    60   28   29 2
    61   28   57 1
    62   29   58 1
    63   30   59 1
    64   30   60 1
    65   30   61 1
    66   31   62 1
    67   31   63 1
    68   31   64 1
@<TRIPOS>MOLECULE
CHEMBL48308__1
   64    68     0     0     0
SMALL
USER_CHARGES

@<TRIPOS>ATOM
      1 C1          0.0335    1.2940   -0.0178 C.3       1 <0>        -0.1226
      2 C2         -0.0084   -0.2108    0.0613 C.2       1 <0>        -0.0578
      3 C3         -0.1134   -0.8733   -1.0917 C.2       1 <0>        -0.1777
      4 C4         -0.1358   -2.3753   -1.1255 C.3       1 <0>         0.2140
      5 N1          0.6444   -2.8962    0.0026 N.pl3     1 <0>        -0.7342
      6 C5          0.5086   -2.2931    1.2522 C.ar      1 <0>         0.2226
      7 C6          0.0788   -0.9475    1.3299 C.ar      1 <0>        -0.0965
      8 C7         -0.3281   -0.4696    2.5684 C.ar      1 <0>        -0.0560
      9 C8          0.1176   -1.1317    3.7216 C.ar      1 <0>        -0.0751
     10 C9          0.7043   -2.3877    3.6309 C.ar      1 <0>        -0.0449
     11 C10         0.8793   -2.9768    2.3944 C.ar      1 <0>        -0.1874
     12 C11         0.0009   -0.4427    5.0286 C.ar      1 <0>        -0.1408
     13 C12        -0.9473    0.5864    5.1273 C.ar      1 <0>         0.1728
     14 C13        -1.1096    1.2684    6.3210 C.ar      1 <0>        -0.1829
     15 C14        -0.3478    0.9279    7.4232 C.ar      1 <0>        -0.0463
     16 C15         0.5847   -0.0864    7.3356 C.ar      1 <0>        -0.2407
     17 C16         0.7705   -0.7684    6.1376 C.ar      1 <0>         0.1694
     18 O1          1.7327   -1.7263    6.0818 O.3       1 <0>        -0.3102
     19 C17         2.4650   -1.9809    7.2822 C.3       1 <0>         0.0244
     20 O2         -1.7062    0.8872    4.0562 O.3       1 <0>        -0.3017
     21 C18        -1.2226    0.7266    2.7270 C.3       1 <0>         0.1564
     22 C19        -2.4608    0.5378    1.8483 C.3       1 <0>        -0.0375
     23 C20        -3.2362   -0.6921    2.3405 C.3       1 <0>        -0.1161
     24 C21        -4.1755   -1.1942    1.2464 C.3       1 <0>        -0.1207
     25 C22        -4.8078   -0.0713    0.4494 C.3       1 <0>        -0.1306
     26 C23        -5.9979    0.4255    1.2647 C.3       1 <0>        -0.1134
     27 C24        -5.4988    1.0325    2.5856 C.3       1 <0>        -0.1105
     28 C25        -4.4758    2.0884    2.2251 C.2       1 <0>        -0.1304
     29 C26        -3.2763    1.7801    1.8929 C.2       1 <0>        -0.1474
     30 C27         0.4792   -2.8657   -2.4383 C.3       1 <0>        -0.1534
     31 C28        -1.5789   -2.8720   -1.0251 C.3       1 <0>        -0.1610
     32 H1          0.5575    1.6891    0.8525 H         1 <0>         0.0651
     33 H2          0.5570    1.5957   -0.9250 H         1 <0>         0.0708
     34 H3         -0.9836    1.6852   -0.0381 H         1 <0>         0.0736
     35 H4         -0.1834   -0.3143   -2.0122 H         1 <0>         0.1232
     36 H5          1.2457   -3.6503   -0.1196 H         1 <0>         0.4018
     37 H6          0.9989   -2.9311    4.5144 H         1 <0>         0.1355
     38 H7          1.3040   -3.9672    2.3197 H         1 <0>         0.1248
     39 H8         -1.8334    2.0672    6.3908 H         1 <0>         0.1332
     40 H9         -0.4835    1.4564    8.3548 H         1 <0>         0.1324
     41 H10         1.1750   -0.3545    8.1996 H         1 <0>         0.1322
     42 H11         3.1996   -2.7654    7.1002 H         1 <0>         0.1010
     43 H12         2.9758   -1.0706    7.5962 H         1 <0>         0.0574
     44 H13         1.7783   -2.3009    8.0658 H         1 <0>         0.0576
     45 H14        -0.7029    1.6338    2.4339 H         1 <0>         0.0827
     46 H15        -2.1404    0.3631    0.8212 H         1 <0>         0.1046
     47 H16        -2.5323   -1.4818    2.6029 H         1 <0>         0.0626
     48 H17        -3.8190   -0.4230    3.2215 H         1 <0>         0.0797
     49 H18        -3.6124   -1.8334    0.5663 H         1 <0>         0.0558
     50 H19        -4.9663   -1.7863    1.7070 H         1 <0>         0.0591
     51 H20        -4.0895    0.7362    0.3076 H         1 <0>         0.0799
     52 H21        -5.1471   -0.4445   -0.5169 H         1 <0>         0.0602
     53 H22        -6.5358    1.1844    0.6966 H         1 <0>         0.0575
     54 H23        -6.6656   -0.4092    1.4781 H         1 <0>         0.0614
     55 H24        -6.3302    1.4880    3.1236 H         1 <0>         0.0633
     56 H25        -5.0359    0.2596    3.1991 H         1 <0>         0.0870
     57 H26        -4.7639    3.1290    2.2484 H         1 <0>         0.1096
     58 H27        -2.7160    2.6419    1.5618 H         1 <0>         0.0765
     59 H28         1.5091   -2.5161   -2.5099 H         1 <0>         0.0627
     60 H29         0.4628   -3.9553   -2.4625 H         1 <0>         0.0631
     61 H30        -0.0963   -2.4749   -3.2774 H         1 <0>         0.0742
     62 H31        -2.1562   -2.4832   -1.8639 H         1 <0>         0.0657
     63 H32        -1.5907   -3.9616   -1.0499 H         1 <0>         0.0589
     64 H33        -2.0183   -2.5251   -0.0898 H         1 <0>         0.0631
@<TRIPOS>BOND
     1    1    2 1
     2    1   32 1
     3    1   33 1
     4    1   34 1
     5    2    7 1
     6    2    3 2
     7    3    4 1
     8    3   35 1
     9    4    5 1
    10    4   30 1
    11    4   31 1
    12    5    6 1
    13    5   36 1
    14    6   11 ar
    15    6    7 ar
    16    7    8 ar
    17    8   21 1
    18    8    9 ar
    19    9   10 ar
    20    9   12 1
    21   10   11 ar
    22   10   37 1
    23   11   38 1
    24   12   17 ar
    25   12   13 ar
    26   13   14 ar
    27   13   20 1
    28   14   15 ar
    29   14   39 1
    30   15   16 ar
    31   15   40 1
    32   16   17 ar
    33   16   41 1
    34   17   18 1
    35   18   19 1
    36   19   42 1
    37   19   43 1
    38   19   44 1
    39   20   21 1
    40   21   22 1
    41   21   45 1
    42   22   29 1
    43   22   23 1
    44   22   46 1
    45   23   24 1
    46   23   47 1
    47   23   48 1
    48   24   25 1
    49   24   49 1
    50   24   50 1
    51   25   26 1
    52   25   51 1
    53   25   52 1
    54   26   27 1
    55   26   53 1
    56   26   54 1
    57   27   28 1
    58   27   55 1
    59   27   56 1
    60   28   29 2
    61   28   57 1
    62   29   58 1
    63   30   59 1
    64   30   60 1
    65   30   61 1
    66   31   62 1
    67   31   63 1
    68   31   64 1
@<TRIPOS>MOLECULE
CHEMBL48308__2
   64    68     0     0     0
SMALL
USER_CHARGES

@<TRIPOS>ATOM
      1 C1         -0.4856    1.9631    0.0497 C.3       1 <0>        -0.1402
      2 C2         -0.3950    0.4795   -0.1938 C.2       1 <0>        -0.0556
      3 C3         -0.6465    0.0796   -1.4431 C.2       1 <0>        -0.1823
      4 C4         -0.5771   -1.3674   -1.8354 C.3       1 <0>         0.2136
      5 N1          0.3887   -2.0550   -0.9735 N.pl3     1 <0>        -0.7365
      6 C5          0.4059   -1.7665    0.3909 C.ar      1 <0>         0.2206
      7 C6         -0.0447   -0.5032    0.8439 C.ar      1 <0>        -0.0887
      8 C7         -0.1829   -0.3140    2.2106 C.ar      1 <0>        -0.0539
      9 C8          0.3235   -1.2743    3.1044 C.ar      1 <0>        -0.0768
     10 C9          0.8982   -2.4461    2.6296 C.ar      1 <0>        -0.0450
     11 C10         0.9358   -2.6888    1.2724 C.ar      1 <0>        -0.1872
     12 C11         0.1980   -1.0226    4.5599 C.ar      1 <0>        -0.1275
     13 C12        -0.8066   -0.1306    4.9716 C.ar      1 <0>         0.1536
     14 C13        -1.0041    0.1301    6.3124 C.ar      1 <0>        -0.1736
     15 C14        -0.2048   -0.4860    7.2593 C.ar      1 <0>        -0.0518
     16 C15         0.7930   -1.3559    6.8658 C.ar      1 <0>        -0.2319
     17 C16         1.0039   -1.6232    5.5172 C.ar      1 <0>         0.1640
     18 O1          2.0223   -2.4532    5.1697 O.3       1 <0>        -0.3100
     19 C17         2.7903   -3.0186    6.2339 C.3       1 <0>         0.0243
     20 O2         -1.5594    0.4735    4.0150 O.3       1 <0>        -0.3020
     21 C18        -0.8533    0.8837    2.8308 C.3       1 <0>         0.1418
     22 C19         0.1992    1.9148    3.2431 C.3       1 <0>        -0.0646
     23 C20        -0.5132    3.1706    3.7643 C.3       1 <0>        -0.1235
     24 C21         0.4453    4.0067    4.6091 C.3       1 <0>        -0.1166
     25 C22         1.8597    4.0130    4.0657 C.3       1 <0>        -0.1332
     26 C23         1.8965    5.0616    2.9581 C.3       1 <0>        -0.1130
     27 C24         0.9717    4.6288    1.8093 C.3       1 <0>        -0.1090
     28 C25         1.4038    3.2377    1.3977 C.2       1 <0>        -0.1411
     29 C26         1.0755    2.2006    2.0765 C.2       1 <0>        -0.1440
     30 C27        -0.1282   -1.4807   -3.2944 C.3       1 <0>        -0.1525
     31 C28        -1.9558   -2.0116   -1.6792 C.3       1 <0>        -0.1575
     32 H1          0.4600    2.4338   -0.2191 H         1 <0>         0.0843
     33 H2         -1.2865    2.3829   -0.5589 H         1 <0>         0.0616
     34 H3         -0.6959    2.1461    1.1035 H         1 <0>         0.0825
     35 H4         -0.9058    0.8238   -2.1822 H         1 <0>         0.1221
     36 H5          1.0095   -2.7042   -1.3472 H         1 <0>         0.4015
     37 H6          1.2959   -3.1856    3.3065 H         1 <0>         0.1353
     38 H7          1.3803   -3.6003    0.8971 H         1 <0>         0.1248
     39 H8         -1.7796    0.8138    6.6255 H         1 <0>         0.1340
     40 H9         -0.3623   -0.2846    8.3078 H         1 <0>         0.1325
     41 H10         1.4162   -1.8337    7.6078 H         1 <0>         0.1323
     42 H11         3.5685   -3.6596    5.8196 H         1 <0>         0.1014
     43 H12         3.2495   -2.2190    6.8152 H         1 <0>         0.0574
     44 H13         2.1387   -3.6084    6.8787 H         1 <0>         0.0576
     45 H14        -1.5834    1.3173    2.1614 H         1 <0>         0.1296
     46 H15         0.8063    1.4967    4.0460 H         1 <0>         0.0898
     47 H16        -0.8626    3.7645    2.9198 H         1 <0>         0.0769
     48 H17        -1.3675    2.8748    4.3733 H         1 <0>         0.0729
     49 H18         0.0784    5.0325    4.6448 H         1 <0>         0.0616
     50 H19         0.4605    3.6063    5.6228 H         1 <0>         0.0551
     51 H20         2.5618    4.2797    4.8556 H         1 <0>         0.0603
     52 H21         2.1079    3.0324    3.6596 H         1 <0>         0.0804
     53 H22         1.5599    6.0198    3.3539 H         1 <0>         0.0621
     54 H23         2.9161    5.1608    2.5857 H         1 <0>         0.0574
     55 H24        -0.0632    4.6114    2.1509 H         1 <0>         0.0854
     56 H25         1.0759    5.3150    0.9688 H         1 <0>         0.0643
     57 H26         2.0046    3.1154    0.5086 H         1 <0>         0.1110
     58 H27         1.5583    1.3080    1.7071 H         1 <0>         0.0854
     59 H28         0.8560   -1.0263   -3.4081 H         1 <0>         0.0624
     60 H29        -0.0780   -2.5318   -3.5785 H         1 <0>         0.0627
     61 H30        -0.8429   -0.9647   -3.9356 H         1 <0>         0.0739
     62 H31        -2.6718   -1.4977   -2.3205 H         1 <0>         0.0657
     63 H32        -1.9006   -3.0620   -1.9650 H         1 <0>         0.0591
     64 H33        -2.2775   -1.9342   -0.6406 H         1 <0>         0.0572
@<TRIPOS>BOND
     1    1    2 1
     2    1   32 1
     3    1   33 1
     4    1   34 1
     5    2    7 1
     6    2    3 2
     7    3    4 1
     8    3   35 1
     9    4    5 1
    10    4   30 1
    11    4   31 1
    12    5    6 1
    13    5   36 1
    14    6   11 ar
    15    6    7 ar
    16    7    8 ar
    17    8   21 1
    18    8    9 ar
    19    9   10 ar
    20    9   12 1
    21   10   11 ar
    22   10   37 1
    23   11   38 1
    24   12   17 ar
    25   12   13 ar
    26   13   14 ar
    27   13   20 1
    28   14   15 ar
    29   14   39 1
    30   15   16 ar
    31   15   40 1
    32   16   17 ar
    33   16   41 1
    34   17   18 1
    35   18   19 1
    36   19   42 1
    37   19   43 1
    38   19   44 1
    39   20   21 1
    40   21   22 1
    41   21   45 1
    42   22   29 1
    43   22   23 1
    44   22   46 1
    45   23   24 1
    46   23   47 1
    47   23   48 1
    48   24   25 1
    49   24   49 1
    50   24   50 1
    51   25   26 1
    52   25   51 1
    53   25   52 1
    54   26   27 1
    55   26   53 1
    56   26   54 1
    57   27   28 1
    58   27   55 1
    59   27   56 1
    60   28   29 2
    61   28   57 1
    62   29   58 1
    63   30   59 1
    64   30   60 1
    65   30   61 1
    66   31   62 1
    67   31   63 1
    68   31   64 1
@<TRIPOS>MOLECULE
CHEMBL48308__3
   64    68     0     0     0
SMALL
USER_CHARGES

@<TRIPOS>ATOM
      1 C1         -0.0183    1.5019    0.0103 C.3       1 <0>        -0.1216
      2 C2          0.0021   -0.0041    0.0020 C.2       1 <0>        -0.0611
      3 C3         -0.0962   -0.5796   -1.1992 C.2       1 <0>        -0.1775
      4 C4         -0.0730   -2.0715   -1.3614 C.3       1 <0>         0.2128
      5 N1          0.7096   -2.6629   -0.2723 N.pl3     1 <0>        -0.7369
      6 C5          0.5524   -2.1684    1.0222 C.ar      1 <0>         0.2206
      7 C6          0.1312   -0.8303    1.2128 C.ar      1 <0>        -0.0907
      8 C7         -0.1868   -0.4259    2.5005 C.ar      1 <0>        -0.0579
      9 C8          0.1186   -1.2597    3.5909 C.ar      1 <0>        -0.0743
     10 C9          0.6718   -2.5168    3.3844 C.ar      1 <0>        -0.0472
     11 C10         0.8854   -2.9677    2.0987 C.ar      1 <0>        -0.1862
     12 C11        -0.1951   -0.7806    4.9583 C.ar      1 <0>        -0.1163
     13 C12        -1.1833    0.2111    5.0786 C.ar      1 <0>         0.1698
     14 C13        -1.5511    0.6848    6.3216 C.ar      1 <0>        -0.1725
     15 C14        -0.9400    0.1849    7.4581 C.ar      1 <0>        -0.0481
     16 C15         0.0404   -0.7818    7.3513 C.ar      1 <0>        -0.2326
     17 C16         0.4221   -1.2638    6.1037 C.ar      1 <0>         0.1579
     18 O1          1.4190   -2.1850    6.0391 O.3       1 <0>        -0.3117
     19 C17         1.9861   -2.6152    7.2782 C.3       1 <0>         0.0253
     20 O2         -1.7480    0.6954    3.9414 O.3       1 <0>        -0.3035
     21 C18        -0.8533    0.8837    2.8308 C.3       1 <0>         0.1424
     22 C19         0.1992    1.9148    3.2431 C.3       1 <0>        -0.0632
     23 C20        -0.4964    3.2585    3.5016 C.3       1 <0>        -0.1193
     24 C21         0.5198    4.3967    3.4436 C.3       1 <0>        -0.1176
     25 C22         1.8613    4.0217    4.0399 C.3       1 <0>        -0.1330
     26 C23         1.7308    4.1944    5.5501 C.3       1 <0>        -0.1129
     27 C24         0.6978    3.1950    6.0945 C.3       1 <0>        -0.1041
     28 C25         1.1329    1.8196    5.6360 C.2       1 <0>        -0.1301
     29 C26         0.9244    1.4102    4.4389 C.2       1 <0>        -0.1600
     30 C27         0.5703   -2.4300   -2.7034 C.3       1 <0>        -0.1527
     31 C28        -1.5015   -2.6175   -1.3237 C.3       1 <0>        -0.1578
     32 H1          0.8684    1.8745    0.5231 H         1 <0>         0.0704
     33 H2         -0.0268    1.8708   -1.0153 H         1 <0>         0.0699
     34 H3         -0.9114    1.8503    0.5291 H         1 <0>         0.0706
     35 H4         -0.1948    0.0530   -2.0695 H         1 <0>         0.1234
     36 H5          1.3304   -3.3909   -0.4491 H         1 <0>         0.4018
     37 H6          0.9162   -3.1609    4.2142 H         1 <0>         0.1353
     38 H7          1.3140   -3.9463    1.9318 H         1 <0>         0.1246
     39 H8         -2.3136    1.4448    6.4107 H         1 <0>         0.1294
     40 H9         -1.2309    0.5532    8.4301 H         1 <0>         0.1289
     41 H10         0.5165   -1.1684    8.2408 H         1 <0>         0.1293
     42 H11         2.7686   -3.3489    7.0845 H         1 <0>         0.1000
     43 H12         2.4126   -1.7583    7.7996 H         1 <0>         0.0564
     44 H13         1.2097   -3.0667    7.8958 H         1 <0>         0.0568
     45 H14        -1.4484    1.2430    2.0026 H         1 <0>         0.1279
     46 H15         0.9099    2.0388    2.4260 H         1 <0>         0.0936
     47 H16        -1.2633    3.4199    2.7440 H         1 <0>         0.0645
     48 H17        -0.9628    3.2403    4.4866 H         1 <0>         0.0809
     49 H18         0.6664    4.6838    2.4024 H         1 <0>         0.0544
     50 H19         0.1203    5.2521    3.9884 H         1 <0>         0.0610
     51 H20         2.0988    2.9848    3.8019 H         1 <0>         0.0811
     52 H21         2.6386    4.6816    3.6545 H         1 <0>         0.0596
     53 H22         2.6965    4.0113    6.0213 H         1 <0>         0.0559
     54 H23         1.4053    5.2105    5.7726 H         1 <0>         0.0605
     55 H24         0.6786    3.2356    7.1836 H         1 <0>         0.0612
     56 H25        -0.2898    3.4256    5.6949 H         1 <0>         0.0846
     57 H26         1.6321    1.1657    6.3357 H         1 <0>         0.1041
     58 H27         1.3950    0.4562    4.2517 H         1 <0>         0.0910
     59 H28         1.5900   -2.0459   -2.7316 H         1 <0>         0.0628
     60 H29         0.5868   -3.5136   -2.8204 H         1 <0>         0.0631
     61 H30        -0.0079   -1.9858   -3.5136 H         1 <0>         0.0741
     62 H31        -2.0810   -2.1753   -2.1340 H         1 <0>         0.0659
     63 H32        -1.4797   -3.7009   -1.4418 H         1 <0>         0.0595
     64 H33        -1.9617   -2.3654   -0.3683 H         1 <0>         0.0574
@<TRIPOS>BOND
     1    1    2 1
     2    1   32 1
     3    1   33 1
     4    1   34 1
     5    2    7 1
     6    2    3 2
     7    3    4 1
     8    3   35 1
     9    4    5 1
    10    4   30 1
    11    4   31 1
    12    5    6 1
    13    5   36 1
    14    6   11 ar
    15    6    7 ar
    16    7    8 ar
    17    8   21 1
    18    8    9 ar
    19    9   10 ar
    20    9   12 1
    21   10   11 ar
    22   10   37 1
    23   11   38 1
    24   12   17 ar
    25   12   13 ar
    26   13   14 ar
    27   13   20 1
    28   14   15 ar
    29   14   39 1
    30   15   16 ar
    31   15   40 1
    32   16   17 ar
    33   16   41 1
    34   17   18 1
    35   18   19 1
    36   19   42 1
    37   19   43 1
    38   19   44 1
    39   20   21 1
    40   21   22 1
    41   21   45 1
    42   22   29 1
    43   22   23 1
    44   22   46 1
    45   23   24 1
    46   23   47 1
    47   23   48 1
    48   24   25 1
    49   24   49 1
    50   24   50 1
    51   25   26 1
    52   25   51 1
    53   25   52 1
    54   26   27 1
    55   26   53 1
    56   26   54 1
    57   27   28 1
    58   27   55 1
    59   27   56 1
    60   28   29 2
    61   28   57 1
    62   29   58 1
    63   30   59 1
    64   30   60 1
    65   30   61 1
    66   31   62 1
    67   31   63 1
    68   31   64 1
@<TRIPOS>MOLECULE
CHEMBL500897
   77    81     0     0     0
SMALL
USER_CHARGES

@<TRIPOS>ATOM
      1 C1         -0.5847    1.4462    0.8775 C.3       1 <0>        -0.1594
      2 C2         -0.5856   -0.0658    0.6435 C.3       1 <0>        -0.0892
      3 H1         -1.6088   -0.4412    0.6292 H         1 <0>         0.0928
      4 C3          0.1228   -0.3980   -0.6982 C.3       1 <0>        -0.1122
      5 C4          0.8618   -1.7029   -0.3818 C.3       1 <0>        -0.0833
      6 H2          0.1622   -2.5384   -0.3564 H         1 <0>         0.0876
      7 C5          2.0401   -2.0293   -1.2812 C.3       1 <0>        -0.0993
      8 H3          2.7654   -1.2164   -1.2468 H         1 <0>         0.1154
      9 C6          1.5563   -2.2292   -2.7188 C.3       1 <0>        -0.1155
     10 C7          2.7530   -2.5193   -3.6303 C.3       1 <0>        -0.0950
     11 C8          3.5027   -3.7090   -3.0607 C.2       1 <0>        -0.0292
     12 C9          3.7812   -4.7333   -3.8550 C.2       1 <0>        -0.2208
     13 C10         4.4886   -5.9131   -3.3337 C.2       1 <0>         0.4076
     14 O1          4.7799   -6.8387   -4.0680 O.2       1 <0>        -0.4564
     15 C11         4.8360   -5.9488   -1.9030 C.2       1 <0>        -0.2091
     16 C12         4.5540   -4.9119   -1.1300 C.2       1 <0>        -0.0689
     17 C13         3.8974   -3.6648   -1.6141 C.3       1 <0>        -0.0314
     18 C14         2.6823   -3.3204   -0.7489 C.3       1 <0>         0.1611
     19 C15         3.1015   -3.1812    0.7114 C.3       1 <0>         0.0906
     20 H4          3.4631   -4.1446    1.0709 H         1 <0>         0.0735
     21 C16         1.9318   -2.7227    1.5968 C.3       1 <0>        -0.1328
     22 C17         1.4140   -1.4149    1.0401 C.3       1 <0>        -0.0405
     23 C18         0.2260   -0.7764    1.7552 C.3       1 <0>         0.1198
     24 C19         0.7058    0.2259    2.7731 C.2       1 <0>         0.3530
     25 O2          1.3569    1.1800    2.4207 O.2       1 <0>        -0.3988
     26 C20         0.3730    0.0377    4.2308 C.3       1 <0>         0.0213
     27 O3          0.8865    1.1391    4.9827 O.3       1 <0>        -0.5499
     28 O4         -0.5717   -1.7806    2.3855 O.3       1 <0>        -0.3453
     29 C21        -1.7676   -1.3962    2.8702 C.2       1 <0>         0.6422
     30 O5         -2.1322   -0.2439    2.7446 O.2       1 <0>        -0.5555
     31 N1         -2.5603   -2.2895    3.4948 N.am      1 <0>        -0.7023
     32 C22        -3.8615   -1.8712    4.0222 C.3       1 <0>         0.2022
     33 H5         -3.7917   -0.8484    4.3925 H         1 <0>         0.1019
     34 C23        -4.9090   -1.9403    2.9092 C.3       1 <0>        -0.1619
     35 C24        -4.2647   -2.7870    5.1491 C.ar      1 <0>        -0.0982
     36 C25        -4.0201   -4.1444    5.0578 C.ar      1 <0>        -0.1135
     37 C26        -4.3899   -4.9845    6.0914 C.ar      1 <0>        -0.1144
     38 C27        -5.0039   -4.4670    7.2166 C.ar      1 <0>        -0.1150
     39 C28        -5.2477   -3.1094    7.3084 C.ar      1 <0>        -0.1142
     40 C29        -4.8740   -2.2688    6.2766 C.ar      1 <0>        -0.1051
     41 C30         2.5711   -0.4176    0.9551 C.3       1 <0>        -0.1677
     42 O6          4.1577   -2.2232    0.8039 O.3       1 <0>        -0.5397
     43 F1          1.7598   -4.3676   -0.8465 F         1 <0>        -0.1924
     44 C31         4.8890   -2.5136   -1.4350 C.3       1 <0>        -0.1364
     45 H6          0.4416    1.8132    0.8776 H         1 <0>         0.0812
     46 H7         -1.1461    1.9372    0.0827 H         1 <0>         0.0576
     47 H8         -1.0490    1.6653    1.8390 H         1 <0>         0.0646
     48 H9         -0.6077   -0.5513   -1.4925 H         1 <0>         0.0763
     49 H10         0.8275    0.3888   -0.9674 H         1 <0>         0.0804
     50 H11         0.8615   -3.0683   -2.7544 H         1 <0>         0.0742
     51 H12         1.0509   -1.3258   -3.0603 H         1 <0>         0.0824
     52 H13         2.4020   -2.7525   -4.6355 H         1 <0>         0.0847
     53 H14         3.4107   -1.6506   -3.6618 H         1 <0>         0.0887
     54 H15         3.4858   -4.7014   -4.8933 H         1 <0>         0.1389
     55 H16         5.3196   -6.8194   -1.4852 H         1 <0>         0.1406
     56 H17         4.8157   -4.9736   -0.0840 H         1 <0>         0.1273
     57 H18         1.1340   -3.4650    1.5718 H         1 <0>         0.0884
     58 H19         2.2754   -2.5799    2.6213 H         1 <0>         0.0768
     59 H20        -0.7089   -0.0126    4.3529 H         1 <0>         0.0840
     60 H21         0.8226   -0.8882    4.5895 H         1 <0>         0.0754
     61 H22         0.7087    1.0845    5.9316 H         1 <0>         0.3847
     62 H23        -2.2692   -3.2093    3.5952 H         1 <0>         0.4068
     63 H24        -4.9788   -2.9631    2.5390 H         1 <0>         0.0620
     64 H25        -5.8771   -1.6291    3.3016 H         1 <0>         0.0734
     65 H26        -4.6174   -1.2779    2.0942 H         1 <0>         0.0680
     66 H27        -3.5404   -4.5488    4.1787 H         1 <0>         0.1209
     67 H28        -4.1995   -6.0451    6.0198 H         1 <0>         0.1255
     68 H29        -5.2935   -5.1234    8.0239 H         1 <0>         0.1247
     69 H30        -5.7277   -2.7051    8.1873 H         1 <0>         0.1263
     70 H31        -5.0611   -1.2076    6.3498 H         1 <0>         0.1260
     71 H32         2.1838    0.5667    0.6918 H         1 <0>         0.0729
     72 H33         3.0756   -0.3633    1.9198 H         1 <0>         0.0535
     73 H34         3.2783   -0.7455    0.1932 H         1 <0>         0.1093
     74 H35         4.4799   -2.0786    1.7041 H         1 <0>         0.3784
     75 H36         4.3464   -1.5690   -1.3981 H         1 <0>         0.0783
     76 H37         5.4420   -2.6515   -0.5059 H         1 <0>         0.0975
     77 H38         5.5853   -2.5000   -2.2736 H         1 <0>         0.0543
@<TRIPOS>BOND
     1    1    2 1
     2    1   45 1
     3    1   46 1
     4    1   47 1
     5    2    3 1
     6    2   23 1
     7    2    4 1
     8    4    5 1
     9    4   48 1
    10    4   49 1
    11    5    6 1
    12    5   22 1
    13    5    7 1
    14    7    8 1
    15    7   18 1
    16    7    9 1
    17    9   10 1
    18    9   50 1
    19    9   51 1
    20   10   11 1
    21   10   52 1
    22   10   53 1
    23   11   17 1
    24   11   12 2
    25   12   13 1
    26   12   54 1
    27   13   14 2
    28   13   15 1
    29   15   16 2
    30   15   55 1
    31   16   17 1
    32   16   56 1
    33   17   18 1
    34   17   44 1
    35   18   19 1
    36   18   43 1
    37   19   20 1
    38   19   21 1
    39   19   42 1
    40   21   22 1
    41   21   57 1
    42   21   58 1
    43   22   23 1
    44   22   41 1
    45   23   24 1
    46   23   28 1
    47   24   25 2
    48   24   26 1
    49   26   27 1
    50   26   59 1
    51   26   60 1
    52   27   61 1
    53   28   29 1
    54   29   30 2
    55   29   31 am
    56   31   32 1
    57   31   62 1
    58   32   33 1
    59   32   34 1
    60   32   35 1
    61   34   63 1
    62   34   64 1
    63   34   65 1
    64   35   40 ar
    65   35   36 ar
    66   36   37 ar
    67   36   66 1
    68   37   38 ar
    69   37   67 1
    70   38   39 ar
    71   38   68 1
    72   39   40 ar
    73   39   69 1
    74   40   70 1
    75   41   71 1
    76   41   72 1
    77   41   73 1
    78   42   74 1
    79   44   75 1
    80   44   76 1
    81   44   77 1
@<TRIPOS>MOLECULE
CHEMBL1084013
   56    60     0     0     0
SMALL
USER_CHARGES

@<TRIPOS>ATOM
      1 C1         -1.1063    0.8863   -1.1118 C.3       1 <0>         0.0273
      2 O1         -0.9503   -0.5239   -0.9419 O.3       1 <0>        -0.3160
      3 C2         -0.2059   -0.9392    0.1166 C.ar      1 <0>         0.0994
      4 C3          0.3580   -0.0085    0.9774 C.ar      1 <0>        -0.1699
      5 C4          1.1138   -0.4331    2.0527 C.ar      1 <0>        -0.1066
      6 C5          1.3087   -1.7845    2.2717 C.ar      1 <0>        -0.0603
      7 C6          0.7483   -2.7138    1.4153 C.ar      1 <0>        -0.5784
      8 C7         -0.0133   -2.2943    0.3415 C.ar      1 <0>        -0.0516
      9 S1          0.9995   -4.4348    1.6975 S.o2      1 <0>         2.6068
     10 O2          0.8255   -5.0815    0.4442 O.2       1 <0>        -1.0222
     11 O3          2.1957   -4.5517    2.4555 O.2       1 <0>        -1.0226
     12 N1         -0.2324   -4.9558    2.6739 N.2       1 <0>        -1.0817
     13 C8         -0.2929   -6.2938    3.0675 C.ar      1 <0>         0.2879
     14 C9          0.6848   -7.1869    2.6438 C.ar      1 <0>        -0.2389
     15 C10         0.6269   -8.5085    3.0314 C.ar      1 <0>        -0.0416
     16 C11        -0.4129   -8.9494    3.8487 C.ar      1 <0>        -0.1222
     17 C12        -1.3919   -8.0525    4.2723 C.ar      1 <0>        -0.1239
     18 C13        -1.3272   -6.7300    3.8870 C.ar      1 <0>        -0.1334
     19 C14        -2.5170   -8.5262    5.1559 C.3       1 <0>         0.5083
     20 F1         -3.2759   -7.4278    5.5739 F         1 <0>        -0.1805
     21 F2         -3.3314   -9.4105    4.4403 F         1 <0>        -0.1810
     22 F3         -1.9883   -9.1802    6.2739 F         1 <0>        -0.1781
     23 C15        -0.4774  -10.3715    4.2666 C.ar      1 <0>        -0.0523
     24 C16        -1.6027  -11.1420    3.9488 C.ar      1 <0>        -0.0621
     25 C17        -1.6791  -12.4505    4.3248 C.ar      1 <0>        -0.1416
     26 C18        -0.6328  -13.0377    5.0330 C.ar      1 <0>         0.1201
     27 C19         0.5053  -12.2741    5.3590 C.ar      1 <0>        -0.1711
     28 C20         0.5788  -10.9348    4.9655 C.ar      1 <0>        -0.0274
     29 C21         1.4023  -13.1651    6.0894 C.2       1 <0>         0.0926
     30 N2          0.8261  -14.3307    6.1716 N.2       1 <0>        -0.2569
     31 N3         -0.4205  -14.2968    5.5385 N.pl3     1 <0>        -0.3640
     32 C22        -1.3098  -15.3743    5.4364 C.ar      1 <0>         0.1697
     33 C23        -2.6799  -15.1513    5.4772 C.ar      1 <0>        -0.1126
     34 C24        -3.5549  -16.2150    5.3764 C.ar      1 <0>        -0.1257
     35 C25        -3.0669  -17.5032    5.2347 C.ar      1 <0>         0.0840
     36 C26        -1.7010  -17.7278    5.1937 C.ar      1 <0>        -0.1303
     37 C27        -0.8226  -16.6663    5.2884 C.ar      1 <0>        -0.0945
     38 F4         -3.9246  -18.5425    5.1367 F         1 <0>        -0.1383
     39 H1         -0.1273    1.3469   -1.2436 H         1 <0>         0.0530
     40 H2         -1.7206    1.0805   -1.9911 H         1 <0>         0.0989
     41 H3         -1.5902    1.3072   -0.2304 H         1 <0>         0.0541
     42 H4          0.2064    1.0471    0.8066 H         1 <0>         0.1296
     43 H5          1.5532    0.2910    2.7228 H         1 <0>         0.1301
     44 H6          1.8999   -2.1145    3.1131 H         1 <0>         0.1395
     45 H7         -0.4545   -3.0208   -0.3248 H         1 <0>         0.1453
     46 H8          1.4899   -6.8451    2.0104 H         1 <0>         0.1081
     47 H9          1.3864   -9.2021    2.7018 H         1 <0>         0.1176
     48 H10        -2.0832   -6.0337    4.2186 H         1 <0>         0.1314
     49 H11        -2.4187  -10.6951    3.4003 H         1 <0>         0.1477
     50 H12        -2.5531  -13.0331    4.0733 H         1 <0>         0.1255
     51 H13         1.4490  -10.3429    5.2078 H         1 <0>         0.1347
     52 H14         2.3709  -12.9045    6.4897 H         1 <0>         0.2021
     53 H15        -3.0608  -14.1469    5.5881 H         1 <0>         0.1431
     54 H16        -4.6205  -16.0420    5.4085 H         1 <0>         0.1447
     55 H17        -1.3225  -18.7332    5.0831 H         1 <0>         0.1427
     56 H18         0.2424  -16.8413    5.2516 H         1 <0>         0.1417
@<TRIPOS>BOND
     1    1    2 1
     2    1   39 1
     3    1   40 1
     4    1   41 1
     5    2    3 1
     6    3    8 ar
     7    3    4 ar
     8    4    5 ar
     9    4   42 1
    10    5    6 ar
    11    5   43 1
    12    6    7 ar
    13    6   44 1
    14    7    8 ar
    15    7    9 1
    16    8   45 1
    17    9   10 2
    18    9   11 2
    19    9   12 1
    20   12   13 1
    21   13   18 ar
    22   13   14 ar
    23   14   15 ar
    24   14   46 1
    25   15   16 ar
    26   15   47 1
    27   16   17 ar
    28   16   23 1
    29   17   18 ar
    30   17   19 1
    31   18   48 1
    32   19   20 1
    33   19   21 1
    34   19   22 1
    35   23   28 ar
    36   23   24 ar
    37   24   25 ar
    38   24   49 1
    39   25   26 ar
    40   25   50 1
    41   26   31 1
    42   26   27 ar
    43   27   28 ar
    44   27   29 1
    45   28   51 1
    46   29   30 2
    47   29   52 1
    48   30   31 1
    49   31   32 1
    50   32   37 ar
    51   32   33 ar
    52   33   34 ar
    53   33   53 1
    54   34   35 ar
    55   34   54 1
    56   35   36 ar
    57   35   38 1
    58   36   37 ar
    59   36   55 1
    60   37   56 1
@<TRIPOS>MOLECULE
CHEMBL1084013__1
   57    61     0     0     0
SMALL
USER_CHARGES

@<TRIPOS>ATOM
      1 C1          0.4744  -11.2137   -2.0965 C.3       1 <0>         0.0237
      2 O1          1.0855  -10.0255   -2.6034 O.3       1 <0>        -0.3124
      3 C2          0.7636   -8.8563   -1.9901 C.ar      1 <0>         0.1109
      4 C3         -0.1179   -8.8533   -0.9186 C.ar      1 <0>        -0.1499
      5 C4         -0.4431   -7.6637   -0.2966 C.ar      1 <0>        -0.0958
      6 C5          0.1090   -6.4762   -0.7410 C.ar      1 <0>        -0.0552
      7 C6          0.9872   -6.4765   -1.8087 C.ar      1 <0>        -0.6397
      8 C7          1.3201   -7.6645   -2.4306 C.ar      1 <0>        -0.0511
      9 S1          1.6881   -4.9613   -2.3723 S.o2      1 <0>         2.6898
     10 O2          2.1416   -5.1923   -3.6991 O.2       1 <0>        -0.9440
     11 O3          0.7545   -3.9386   -2.0536 O.2       1 <0>        -0.9403
     12 N1          3.0363   -4.6742   -1.4545 N.pl3     1 <0>        -1.0608
     13 C8          2.9169   -4.4984   -0.0748 C.ar      1 <0>         0.1217
     14 C9          2.3715   -3.3237    0.4307 C.ar      1 <0>        -0.0701
     15 C10         2.2527   -3.1480    1.7928 C.ar      1 <0>        -0.0977
     16 C11         2.6801   -4.1493    2.6636 C.ar      1 <0>         0.0254
     17 C12         3.2266   -5.3261    2.1548 C.ar      1 <0>        -0.1686
     18 C13         3.3384   -5.5002    0.7915 C.ar      1 <0>        -0.0629
     19 C14         3.6894   -6.4102    3.0938 C.3       1 <0>         0.5104
     20 F1          4.1284   -7.5128    2.3530 F         1 <0>        -0.1766
     21 F2          4.7412   -5.9282    3.8804 F         1 <0>        -0.1710
     22 F3          2.6282   -6.7960    3.9198 F         1 <0>        -0.1688
     23 C15         2.5537   -3.9622    4.1300 C.ar      1 <0>        -0.1149
     24 C16         3.6971   -3.9886    4.9381 C.ar      1 <0>        -0.0524
     25 C17         3.5998   -3.8185    6.2875 C.ar      1 <0>        -0.1372
     26 C18         2.3550   -3.6155    6.8796 C.ar      1 <0>         0.1392
     27 C19         1.1967   -3.5862    6.0783 C.ar      1 <0>        -0.1761
     28 C20         1.3049   -3.7561    4.6951 C.ar      1 <0>        -0.0029
     29 C21         0.0753   -3.3597    6.9856 C.2       1 <0>         0.0935
     30 N2          0.5528   -3.2683    8.1943 N.2       1 <0>        -0.2450
     31 N3          1.9431   -3.4190    8.1748 N.pl3     1 <0>        -0.3563
     32 C22         2.7810   -3.3763    9.2966 C.ar      1 <0>         0.1549
     33 C23         3.9096   -4.1836    9.3526 C.ar      1 <0>        -0.1093
     34 C24         4.7343   -4.1400   10.4594 C.ar      1 <0>        -0.1273
     35 C25         4.4366   -3.2921   11.5131 C.ar      1 <0>         0.0947
     36 C26         3.3116   -2.4863   11.4593 C.ar      1 <0>        -0.1298
     37 C27         2.4874   -2.5226   10.3518 C.ar      1 <0>        -0.0876
     38 F4          5.2444   -3.2513   12.5952 F         1 <0>        -0.1336
     39 H1          0.7501  -11.3461   -1.0503 H         1 <0>         0.0582
     40 H2         -0.6092  -11.1284   -2.1787 H         1 <0>         0.0582
     41 H3          0.8161  -12.0727   -2.6739 H         1 <0>         0.1058
     42 H4         -0.5497   -9.7803   -0.5714 H         1 <0>         0.1382
     43 H5         -1.1295   -7.6608    0.5372 H         1 <0>         0.1379
     44 H6         -0.1465   -5.5471   -0.2534 H         1 <0>         0.1410
     45 H7          2.0097   -7.6647   -3.2618 H         1 <0>         0.1507
     46 H8          3.9089   -4.6282   -1.8757 H         1 <0>         0.4307
     47 H9          2.0408   -2.5481   -0.2443 H         1 <0>         0.1515
     48 H10         1.8292   -2.2352    2.1850 H         1 <0>         0.1478
     49 H11         3.7578   -6.4138    0.3967 H         1 <0>         0.1473
     50 H12         4.6661   -4.1458    4.4878 H         1 <0>         0.1489
     51 H13         4.4897   -3.8415    6.8989 H         1 <0>         0.1332
     52 H14         0.4227   -3.7315    4.0725 H         1 <0>         0.1385
     53 H15        -0.9646   -3.2812    6.7047 H         1 <0>         0.2061
     54 H16         4.1420   -4.8452    8.5313 H         1 <0>         0.1415
     55 H17         5.6119   -4.7679   10.5035 H         1 <0>         0.1471
     56 H18         3.0811   -1.8257   12.2820 H         1 <0>         0.1465
     57 H19         1.6128   -1.8904   10.3081 H         1 <0>         0.1436
@<TRIPOS>BOND
     1    1    2 1
     2    1   39 1
     3    1   40 1
     4    1   41 1
     5    2    3 1
     6    3    8 ar
     7    3    4 ar
     8    4    5 ar
     9    4   42 1
    10    5    6 ar
    11    5   43 1
    12    6    7 ar
    13    6   44 1
    14    7    8 ar
    15    7    9 1
    16    8   45 1
    17    9   10 2
    18    9   11 2
    19    9   12 1
    20   12   13 1
    21   12   46 1
    22   13   18 ar
    23   13   14 ar
    24   14   15 ar
    25   14   47 1
    26   15   16 ar
    27   15   48 1
    28   16   17 ar
    29   16   23 1
    30   17   18 ar
    31   17   19 1
    32   18   49 1
    33   19   20 1
    34   19   21 1
    35   19   22 1
    36   23   28 ar
    37   23   24 ar
    38   24   25 ar
    39   24   50 1
    40   25   26 ar
    41   25   51 1
    42   26   31 1
    43   26   27 ar
    44   27   28 ar
    45   27   29 1
    46   28   52 1
    47   29   30 2
    48   29   53 1
    49   30   31 1
    50   31   32 1
    51   32   37 ar
    52   32   33 ar
    53   33   34 ar
    54   33   54 1
    55   34   35 ar
    56   34   55 1
    57   35   36 ar
    58   35   38 1
    59   36   37 ar
    60   36   56 1
    61   37   57 1
@<TRIPOS>MOLECULE
CHEMBL397920
   63    67     0     0     0
SMALL
USER_CHARGES

@<TRIPOS>ATOM
      1 C1         -0.0184    1.5055    0.0103 C.3       1 <0>        -0.1192
      2 C2          0.0021   -0.0041    0.0020 C.2       1 <0>        -0.0579
      3 C3          0.0080   -0.5993   -1.1885 C.2       1 <0>        -0.1661
      4 C4         -0.0686   -2.0883   -1.3560 C.3       1 <0>         0.2146
      5 N1          0.3118   -2.7749   -0.1232 N.pl3     1 <0>        -0.7337
      6 C5          0.0809   -2.1970    1.1205 C.ar      1 <0>         0.2263
      7 C6          0.0245   -0.7901    1.2418 C.ar      1 <0>        -0.0627
      8 C7          0.0699   -0.2584    2.5228 C.ar      1 <0>        -0.0278
      9 C8         -0.3333   -1.0649    3.6362 C.ar      1 <0>        -0.0852
     10 C9         -0.3713   -2.4356    3.4752 C.ar      1 <0>        -0.0519
     11 C10        -0.1074   -2.9949    2.2355 C.ar      1 <0>        -0.1849
     12 C11        -0.6924   -0.3559    4.8816 C.ar      1 <0>        -0.0868
     13 C12        -0.6417    1.0505    4.9010 C.ar      1 <0>         0.1162
     14 C13        -0.9996    1.7514    6.0402 C.ar      1 <0>        -0.1206
     15 C14        -1.3820    1.0791    7.1843 C.ar      1 <0>        -0.1015
     16 C15        -1.4140   -0.3051    7.1899 C.ar      1 <0>         0.0698
     17 C16        -1.0729   -1.0249    6.0448 C.ar      1 <0>         0.1079
     18 O1         -1.1205   -2.3796    6.1175 O.3       1 <0>        -0.3258
     19 C17         0.0705   -3.0490    6.5366 C.3       1 <0>         0.0319
     20 O2         -1.7794   -0.9718    8.3178 O.3       1 <0>        -0.4876
     21 O3         -0.2180    1.7494    3.8106 O.3       1 <0>        -0.2361
     22 C18         0.5621    1.0617    2.9283 C.2       1 <0>         0.1093
     23 C19         1.7656    1.5526    2.5309 C.2       1 <0>        -0.0762
     24 C20         2.1821    2.8350    2.9579 C.2       1 <0>        -0.0687
     25 C21         3.3693    3.5242    2.6627 C.2       1 <0>        -0.0965
     26 C22         3.5317    4.7908    3.2194 C.2       1 <0>        -0.1319
     27 C23         2.5598    5.2979    4.0068 C.2       1 <0>        -0.1949
     28 S1          1.3324    4.0032    4.0064 S.3       1 <0>         0.1204
     29 C24         4.3993    2.9329    1.8014 C.2       1 <0>         0.1959
     30 N2          4.2223    1.7501    1.2959 N.2       1 <0>        -0.3485
     31 O4          5.2164    1.1794    0.4646 O.3       1 <0>        -0.2396
     32 C25         4.8898   -0.1243   -0.0210 C.3       1 <0>         0.0458
     33 C26         5.6628    3.6983    1.5035 C.3       1 <0>        -0.1472
     34 C27         0.8744   -2.5208   -2.4852 C.3       1 <0>        -0.1544
     35 C28        -1.5026   -2.4746   -1.7372 C.3       1 <0>        -0.1601
     36 H1          1.0042    1.8828    0.0026 H         1 <0>         0.0726
     37 H2         -0.5456    1.8665   -0.8727 H         1 <0>         0.0678
     38 H3         -0.5286    1.8570    0.9071 H         1 <0>         0.0673
     39 H4          0.0729    0.0236   -2.0764 H         1 <0>         0.1273
     40 H5          0.7386   -3.6550   -0.1707 H         1 <0>         0.4046
     41 H6         -0.5990   -3.1045    4.2892 H         1 <0>         0.1447
     42 H7         -0.0507   -4.0699    2.1406 H         1 <0>         0.1289
     43 H8         -0.9845    2.8322    6.0320 H         1 <0>         0.1445
     44 H9         -1.6514    1.6323    8.0733 H         1 <0>         0.1466
     45 H10         0.8789   -2.8212    5.8420 H         1 <0>         0.0484
     46 H11         0.3444   -2.7115    7.5362 H         1 <0>         0.0548
     47 H12        -0.1035   -4.1250    6.5514 H         1 <0>         0.0984
     48 H13        -2.7284   -1.1461    8.3816 H         1 <0>         0.3927
     49 H14         2.4038    0.9635    1.8891 H         1 <0>         0.1799
     50 H15         4.4273    5.3616    3.0231 H         1 <0>         0.1408
     51 H16         2.5304    6.2533    4.5094 H         1 <0>         0.1888
     52 H17         3.9713   -0.0745   -0.6058 H         1 <0>         0.0481
     53 H18         5.7011   -0.4917   -0.6494 H         1 <0>         0.0948
     54 H19         4.7479   -0.8009    0.8216 H         1 <0>         0.0472
     55 H20         6.4158    3.4634    2.2558 H         1 <0>         0.0843
     56 H21         6.0339    3.4173    0.5179 H         1 <0>         0.0805
     57 H22         5.4526    4.7676    1.5213 H         1 <0>         0.0794
     58 H23         1.8958   -2.2338   -2.2355 H         1 <0>         0.0628
     59 H24         0.8208   -3.6024   -2.6091 H         1 <0>         0.0634
     60 H25         0.5768   -2.0335   -3.4137 H         1 <0>         0.0738
     61 H26        -1.7744   -1.9850   -2.6723 H         1 <0>         0.0671
     62 H27        -1.5671   -3.5556   -1.8609 H         1 <0>         0.0611
     63 H28        -2.1859   -2.1576   -0.9492 H         1 <0>         0.0572
@<TRIPOS>BOND
     1    1    2 1
     2    1   36 1
     3    1   37 1
     4    1   38 1
     5    2    7 1
     6    2    3 2
     7    3    4 1
     8    3   39 1
     9    4    5 1
    10    4   34 1
    11    4   35 1
    12    5    6 1
    13    5   40 1
    14    6   11 ar
    15    6    7 ar
    16    7    8 ar
    17    8   22 1
    18    8    9 ar
    19    9   10 ar
    20    9   12 1
    21   10   11 ar
    22   10   41 1
    23   11   42 1
    24   12   17 ar
    25   12   13 ar
    26   13   14 ar
    27   13   21 1
    28   14   15 ar
    29   14   43 1
    30   15   16 ar
    31   15   44 1
    32   16   17 ar
    33   16   20 1
    34   17   18 1
    35   18   19 1
    36   19   45 1
    37   19   46 1
    38   19   47 1
    39   20   48 1
    40   21   22 1
    41   22   23 2
    42   23   24 1
    43   23   49 1
    44   24   28 1
    45   24   25 2
    46   25   26 1
    47   25   29 1
    48   26   27 2
    49   26   50 1
    50   27   28 1
    51   27   51 1
    52   29   30 2
    53   29   33 1
    54   30   31 1
    55   31   32 1
    56   32   52 1
    57   32   53 1
    58   32   54 1
    59   33   55 1
    60   33   56 1
    61   33   57 1
    62   34   58 1
    63   34   59 1
    64   34   60 1
    65   35   61 1
    66   35   62 1
    67   35   63 1
@<TRIPOS>MOLECULE
CHEMBL1082780
   49    53     0     0     0
SMALL
USER_CHARGES

@<TRIPOS>ATOM
      1 C1          1.9258    0.0592    0.4169 C.ar      1 <0>        -0.0945
      2 C2          3.0318    0.2458    1.2225 C.ar      1 <0>        -0.1300
      3 C3          3.3014   -0.6456    2.2475 C.ar      1 <0>         0.0838
      4 C4          2.4631   -1.7259    2.4666 C.ar      1 <0>        -0.1259
      5 C5          1.3563   -1.9164    1.6630 C.ar      1 <0>        -0.1131
      6 C6          1.0836   -1.0232    0.6352 C.ar      1 <0>         0.1700
      7 N1         -0.0389   -1.2143   -0.1808 N.pl3     1 <0>        -0.3643
      8 C7         -0.5454   -2.4309   -0.5670 C.ar      1 <0>         0.1197
      9 C8         -0.1721   -3.7499   -0.3178 C.ar      1 <0>        -0.1445
     10 C9         -0.8900   -4.7780   -0.8534 C.ar      1 <0>        -0.0458
     11 C10        -2.0080   -4.5261   -1.6581 C.ar      1 <0>        -0.0542
     12 C11        -2.3989   -3.2225   -1.9207 C.ar      1 <0>        -0.0426
     13 C12        -1.6681   -2.1633   -1.3748 C.ar      1 <0>        -0.1681
     14 C13        -1.7902   -0.7097   -1.4396 C.2       1 <0>         0.0938
     15 N2         -0.8270   -0.1968   -0.7280 N.2       1 <0>        -0.2568
     16 C14        -2.7764   -5.6583   -2.2318 C.ar      1 <0>        -0.1218
     17 C15        -3.3483   -6.6113   -1.3903 C.ar      1 <0>        -0.0417
     18 C16        -4.0622   -7.6621   -1.9253 C.ar      1 <0>        -0.2394
     19 C17        -4.2117   -7.7722   -3.3031 C.ar      1 <0>         0.2876
     20 C18        -3.6423   -6.8232   -4.1439 C.ar      1 <0>        -0.1338
     21 C19        -2.9323   -5.7673   -3.6125 C.ar      1 <0>        -0.1238
     22 C20        -2.3204   -4.7352   -4.5243 C.3       1 <0>         0.5083
     23 F1         -2.4748   -5.1383   -5.8550 F         1 <0>        -0.1806
     24 F2         -2.9597   -3.5057   -4.3323 F         1 <0>        -0.1803
     25 F3         -0.9586   -4.6034   -4.2319 F         1 <0>        -0.1783
     26 N3         -4.9343   -8.8378   -3.8430 N.2       1 <0>        -1.0833
     27 S1         -5.6128   -9.9695   -2.8423 S.o2      1 <0>         2.6187
     28 O1         -4.5370  -10.6565   -2.2178 O.2       1 <0>        -1.0261
     29 O2         -6.6234   -9.3013   -2.0998 O.2       1 <0>        -1.0233
     30 C21        -6.4341  -11.1448   -3.8663 C.2       1 <0>        -0.6512
     31 C22        -7.7573  -10.9620   -4.2218 C.2       1 <0>        -0.0864
     32 C23        -8.3596  -11.8851   -5.0107 C.2       1 <0>        -0.1907
     33 S2         -7.0421  -13.0603   -5.2759 S.3       1 <0>         0.0382
     34 C24        -5.7762  -12.2389   -4.3219 C.2       1 <0>        -0.0541
     35 F4          4.3840   -0.4613    3.0344 F         1 <0>        -0.1382
     36 H1          1.7134    0.7571   -0.3795 H         1 <0>         0.1419
     37 H2          3.6872    1.0873    1.0528 H         1 <0>         0.1427
     38 H3          2.6753   -2.4201    3.2662 H         1 <0>         0.1445
     39 H4          0.7032   -2.7594    1.8337 H         1 <0>         0.1429
     40 H5          0.6883   -3.9585    0.3008 H         1 <0>         0.1259
     41 H6         -0.5931   -5.7973   -0.6552 H         1 <0>         0.1349
     42 H7         -3.2605   -3.0267   -2.5418 H         1 <0>         0.1479
     43 H8         -2.5468   -0.1582   -1.9780 H         1 <0>         0.2021
     44 H9         -3.2319   -6.5265   -0.3199 H         1 <0>         0.1174
     45 H10        -4.5055   -8.4006   -1.2737 H         1 <0>         0.1076
     46 H11        -3.7593   -6.9107   -5.2140 H         1 <0>         0.1313
     47 H12        -8.3033  -10.0968   -3.8757 H         1 <0>         0.1457
     48 H13        -9.3735  -11.9048   -5.3823 H         1 <0>         0.1881
     49 H14        -4.7523  -12.5369   -4.1511 H         1 <0>         0.1999
@<TRIPOS>BOND
     1    1    6 ar
     2    1    2 ar
     3    1   36 1
     4    2    3 ar
     5    2   37 1
     6    3    4 ar
     7    3   35 1
     8    4    5 ar
     9    4   38 1
    10    5    6 ar
    11    5   39 1
    12    6    7 1
    13    7   15 1
    14    7    8 1
    15    8   13 ar
    16    8    9 ar
    17    9   10 ar
    18    9   40 1
    19   10   11 ar
    20   10   41 1
    21   11   12 ar
    22   11   16 1
    23   12   13 ar
    24   12   42 1
    25   13   14 1
    26   14   15 2
    27   14   43 1
    28   16   21 ar
    29   16   17 ar
    30   17   18 ar
    31   17   44 1
    32   18   19 ar
    33   18   45 1
    34   19   20 ar
    35   19   26 1
    36   20   21 ar
    37   20   46 1
    38   21   22 1
    39   22   23 1
    40   22   24 1
    41   22   25 1
    42   26   27 1
    43   27   28 2
    44   27   29 2
    45   27   30 1
    46   30   34 2
    47   30   31 1
    48   31   32 2
    49   31   47 1
    50   32   33 1
    51   32   48 1
    52   33   34 1
    53   34   49 1
@<TRIPOS>MOLECULE
CHEMBL233389
   51    55     0     0     0
SMALL
USER_CHARGES

@<TRIPOS>ATOM
      1 C1         -0.0187    1.5258    0.0104 C.3       1 <0>        -0.1386
      2 C2          0.0021   -0.0041    0.0020 C.3       1 <0>        -0.0185
      3 C3         -1.4264   -0.5529   -0.0322 C.3       1 <0>        -0.0281
      4 C4         -1.9998   -0.5336    1.3608 C.2       1 <0>        -0.2268
      5 C5         -3.3075   -0.3715    1.7831 C.2       1 <0>         0.0695
      6 N1         -3.3358   -0.4388    3.0953 N.2       1 <0>        -0.2935
      7 N2         -2.0292   -0.6493    3.5682 N.pl3     1 <0>        -0.3104
      8 C6         -1.2124   -0.6933    2.4937 C.2       1 <0>         0.1186
      9 C7          0.2516   -0.8482    2.3862 C.2       1 <0>        -0.1160
     10 C8          0.7616   -0.5249    1.2033 C.2       1 <0>        -0.0613
     11 C9          2.2098   -0.6318    0.7959 C.3       1 <0>        -0.0964
     12 C10         2.2488   -0.6340   -0.7414 C.3       1 <0>        -0.1143
     13 C11         0.7896   -0.5211   -1.2177 C.3       1 <0>        -0.1077
     14 H1          0.4151   -1.4983   -1.5226 H         1 <0>         0.0845
     15 C12         0.6855    0.4728   -2.3763 C.3       1 <0>         0.1565
     16 H2          1.0967    1.4341   -2.0683 H         1 <0>         0.1148
     17 C13         1.4610   -0.0500   -3.5579 C.ar      1 <0>        -0.1252
     18 C14         0.8642   -0.9306   -4.4409 C.ar      1 <0>        -0.0830
     19 C15         1.5742   -1.4103   -5.5251 C.ar      1 <0>        -0.1490
     20 C16         2.8839   -1.0088   -5.7268 C.ar      1 <0>         0.0987
     21 C17         3.4806   -0.1268   -4.8418 C.ar      1 <0>        -0.1501
     22 C18         2.7668    0.3557   -3.7612 C.ar      1 <0>        -0.0804
     23 F1          3.5791   -1.4774   -6.7862 F         1 <0>        -0.1385
     24 O1         -0.6863    0.6365   -2.7415 O.3       1 <0>        -0.5462
     25 C19        -1.6446   -0.7875    4.9085 C.ar      1 <0>         0.1457
     26 C20        -0.6065   -1.6446    5.2490 C.ar      1 <0>        -0.1029
     27 C21        -0.2286   -1.7792    6.5704 C.ar      1 <0>        -0.1308
     28 C22        -0.8843   -1.0600    7.5558 C.ar      1 <0>         0.0989
     29 C23        -1.9201   -0.2050    7.2183 C.ar      1 <0>        -0.1324
     30 C24        -2.2972   -0.0633    5.8974 C.ar      1 <0>        -0.0806
     31 F2         -0.5131   -1.1930    8.8480 F         1 <0>        -0.1330
     32 H3          1.0039    1.9031    0.0027 H         1 <0>         0.0539
     33 H4         -0.5459    1.8868   -0.8726 H         1 <0>         0.0818
     34 H5         -0.5289    1.8773    0.9072 H         1 <0>         0.0543
     35 H6         -2.0389    0.0672   -0.6866 H         1 <0>         0.0883
     36 H7         -1.4141   -1.5766   -0.4065 H         1 <0>         0.0693
     37 H8         -4.1621   -0.2154    1.1415 H         1 <0>         0.1890
     38 H9          0.8609   -1.1877    3.2107 H         1 <0>         0.1384
     39 H10         2.7674    0.2224    1.1800 H         1 <0>         0.0845
     40 H11         2.6357   -1.5590    1.1793 H         1 <0>         0.0790
     41 H12         2.8262    0.2174   -1.1016 H         1 <0>         0.0722
     42 H13         2.6887   -1.5637   -1.1025 H         1 <0>         0.0726
     43 H14        -0.1573   -1.2439   -4.2831 H         1 <0>         0.1309
     44 H15         1.1079   -2.0984   -6.2146 H         1 <0>         0.1368
     45 H16         4.5022    0.1868   -4.9980 H         1 <0>         0.1370
     46 H17         3.2306    1.0471   -3.0733 H         1 <0>         0.1335
     47 H18        -1.1175   -0.1806   -3.0269 H         1 <0>         0.3733
     48 H19        -0.0952   -2.2059    4.4810 H         1 <0>         0.1420
     49 H20         0.5785   -2.4460    6.8357 H         1 <0>         0.1476
     50 H21        -2.4304    0.3547    7.9882 H         1 <0>         0.1472
     51 H22        -3.1019    0.6072    5.6340 H         1 <0>         0.1450
@<TRIPOS>BOND
     1    1    2 1
     2    1   32 1
     3    1   33 1
     4    1   34 1
     5    2   10 1
     6    2   13 1
     7    2    3 1
     8    3    4 1
     9    3   35 1
    10    3   36 1
    11    4    8 2
    12    4    5 1
    13    5    6 2
    14    5   37 1
    15    6    7 1
    16    7    8 1
    17    7   25 1
    18    8    9 1
    19    9   10 2
    20    9   38 1
    21   10   11 1
    22   11   12 1
    23   11   39 1
    24   11   40 1
    25   12   13 1
    26   12   41 1
    27   12   42 1
    28   13   14 1
    29   13   15 1
    30   15   16 1
    31   15   17 1
    32   15   24 1
    33   17   22 ar
    34   17   18 ar
    35   18   19 ar
    36   18   43 1
    37   19   20 ar
    38   19   44 1
    39   20   21 ar
    40   20   23 1
    41   21   22 ar
    42   21   45 1
    43   22   46 1
    44   24   47 1
    45   25   30 ar
    46   25   26 ar
    47   26   27 ar
    48   26   48 1
    49   27   28 ar
    50   27   49 1
    51   28   29 ar
    52   28   31 1
    53   29   30 ar
    54   29   50 1
    55   30   51 1
@<TRIPOS>MOLECULE
CHEMBL1093774
   49    52     0     0     0
SMALL
USER_CHARGES

@<TRIPOS>ATOM
      1 C1         -0.0184    1.5028    0.0103 C.3       1 <0>        -0.0855
      2 C2          0.0021   -0.0041    0.0020 C.2       1 <0>         0.1308
      3 C3          0.0084   -0.8596   -1.1802 C.ar      1 <0>        -0.2337
      4 C4         -0.0014   -0.6170   -2.5574 C.ar      1 <0>         0.1440
      5 C5          0.0098   -1.7192   -3.4159 C.ar      1 <0>        -0.2368
      6 C6          0.0303   -3.0099   -2.8696 C.ar      1 <0>         0.2177
      7 N1          0.0391   -3.2025   -1.5720 N.ar      1 <0>        -0.4986
      8 C7          0.0291   -2.1890   -0.7111 C.ar      1 <0>         0.3466
      9 N2          0.0345   -2.1198    0.6533 N.pl3     1 <0>        -0.3839
     10 N3          0.0230   -0.7788    1.0484 N.2       1 <0>        -0.2340
     11 C8          0.0548   -3.2703    1.5601 C.3       1 <0>         0.1075
     12 C9         -0.0002   -1.5270   -4.8792 C.2       1 <0>         0.5689
     13 O1         -0.0184   -0.4040   -5.3448 O.2       1 <0>        -0.5129
     14 N4          0.0108   -2.5964   -5.6994 N.am      1 <0>        -0.7232
     15 C10         0.0008   -2.4056   -7.1519 C.3       1 <0>         0.1633
     16 C11         0.0164   -3.7488   -7.8351 C.ar      1 <0>        -0.1084
     17 C12         1.2227   -4.3486   -8.1484 C.ar      1 <0>        -0.0953
     18 C13         1.2427   -5.5785   -8.7745 C.ar      1 <0>        -0.1038
     19 C14         0.0449   -6.2160   -9.0905 C.ar      1 <0>        -0.0042
     20 C15        -1.1673   -5.6075   -8.7722 C.ar      1 <0>        -0.1053
     21 C16        -1.1757   -4.3799   -8.1415 C.ar      1 <0>        -0.0954
     22 C17         0.0602   -7.5386   -9.7643 C.2       1 <0>        -0.2263
     23 C18         0.5510   -7.8071  -11.0649 C.2       1 <0>         0.1225
     24 N5          0.3931   -9.0771  -11.2999 N.2       1 <0>        -0.3185
     25 O2         -0.2037   -9.6679  -10.1604 O.3       1 <0>        -0.0775
     26 C19        -0.3887   -8.7091   -9.2412 C.2       1 <0>         0.0929
     27 C20        -0.9914   -8.8962   -7.8726 C.3       1 <0>        -0.0902
     28 C21         1.1505   -6.7989  -12.0111 C.3       1 <0>        -0.0879
     29 Cl1        -0.0274    1.0030   -3.1808 Cl        1 <0>         0.0047
     30 H1          1.0042    1.8801    0.0026 H         1 <0>         0.0918
     31 H2         -0.5455    1.8639   -0.8728 H         1 <0>         0.0884
     32 H3         -0.5286    1.8543    0.9071 H         1 <0>         0.0876
     33 H4          0.0387   -3.8637   -3.5308 H         1 <0>         0.1755
     34 H5          1.0874   -3.5413    1.7802 H         1 <0>         0.0770
     35 H6         -0.4583   -3.0119    2.4864 H         1 <0>         0.0936
     36 H7         -0.4496   -4.1136    1.0884 H         1 <0>         0.0945
     37 H8          0.0253   -3.4923   -5.3280 H         1 <0>         0.3993
     38 H9         -0.8984   -1.8615   -7.4407 H         1 <0>         0.0812
     39 H10         0.8814   -1.8364   -7.4496 H         1 <0>         0.0812
     40 H11         2.1507   -3.8536   -7.9030 H         1 <0>         0.1284
     41 H12         2.1852   -6.0457   -9.0193 H         1 <0>         0.1251
     42 H13        -2.0987   -6.0973   -9.0153 H         1 <0>         0.1249
     43 H14        -2.1148   -3.9093   -7.8904 H         1 <0>         0.1284
     44 H15        -2.0708   -8.7555   -7.9286 H         1 <0>         0.0968
     45 H16        -0.7743   -9.9025   -7.5145 H         1 <0>         0.0895
     46 H17        -0.5650   -8.1659   -7.1849 H         1 <0>         0.0960
     47 H18         2.2270   -6.7436  -11.8488 H         1 <0>         0.0911
     48 H19         0.9532   -7.1032  -13.0390 H         1 <0>         0.0842
     49 H20         0.7050   -5.8207  -11.8298 H         1 <0>         0.0882
@<TRIPOS>BOND
     1    1    2 1
     2    1   30 1
     3    1   31 1
     4    1   32 1
     5    2   10 2
     6    2    3 1
     7    3    8 ar
     8    3    4 ar
     9    4    5 ar
    10    4   29 1
    11    5    6 ar
    12    5   12 1
    13    6    7 ar
    14    6   33 1
    15    7    8 ar
    16    8    9 1
    17    9   10 1
    18    9   11 1
    19   11   34 1
    20   11   35 1
    21   11   36 1
    22   12   13 2
    23   12   14 am
    24   14   15 1
    25   14   37 1
    26   15   16 1
    27   15   38 1
    28   15   39 1
    29   16   21 ar
    30   16   17 ar
    31   17   18 ar
    32   17   40 1
    33   18   19 ar
    34   18   41 1
    35   19   20 ar
    36   19   22 1
    37   20   21 ar
    38   20   42 1
    39   21   43 1
    40   22   26 2
    41   22   23 1
    42   23   24 2
    43   23   28 1
    44   24   25 1
    45   25   26 1
    46   26   27 1
    47   27   44 1
    48   27   45 1
    49   27   46 1
    50   28   47 1
    51   28   48 1
    52   28   49 1
@<TRIPOS>MOLECULE
CHEMBL271263
   63    68     0     0     0
SMALL
USER_CHARGES

@<TRIPOS>ATOM
      1 C1         -0.0167    1.3781    0.0096 C.ar      1 <0>        -0.0836
      2 C2          1.1709    2.0855    0.0021 C.ar      1 <0>        -0.1131
      3 C3          2.3773    1.4107   -0.0130 C.ar      1 <0>        -0.0981
      4 C4          2.3960    0.0285   -0.0201 C.ar      1 <0>        -0.1621
      5 C5          1.2084   -0.6789   -0.0117 C.ar      1 <0>        -0.0937
      6 C6          0.0021   -0.0041    0.0020 C.ar      1 <0>        -0.1123
      7 C7          3.7112   -0.7071   -0.0376 C.3       1 <0>         0.0428
      8 N1          4.1530   -0.9531    1.3416 N.4       1 <0>        -0.3841
      9 C8          4.4045    0.3311    2.0049 C.3       1 <0>        -0.0110
     10 C9          4.7445    0.0931    3.4826 C.3       1 <0>        -0.0965
     11 C10         5.8770   -0.9059    3.5382 C.2       1 <0>        -0.1306
     12 C11         6.9683   -0.6739    4.2396 C.2       1 <0>        -0.0392
     13 C12         8.1059   -1.6005    4.2864 C.2       1 <0>         0.0966
     14 C13         8.1288   -2.7638    3.5493 C.2       1 <0>        -0.2002
     15 C14         9.3394   -3.4065    3.7931 C.2       1 <0>         0.0685
     16 N2         10.0307   -2.6870    4.6417 N.2       1 <0>        -0.2578
     17 N3          9.2876   -1.5491    4.9782 N.pl3     1 <0>        -0.3053
     18 C15         9.6822   -0.5377    5.8640 C.ar      1 <0>         0.1333
     19 C16         9.3152    0.7796    5.6232 C.ar      1 <0>        -0.1046
     20 C17         9.7052    1.7750    6.4974 C.ar      1 <0>        -0.1318
     21 C18        10.4618    1.4600    7.6138 C.ar      1 <0>         0.1087
     22 C19        10.8288    0.1467    7.8558 C.ar      1 <0>        -0.1294
     23 C20        10.4360   -0.8523    6.9870 C.ar      1 <0>        -0.0756
     24 F1         10.8427    2.4352    8.4677 F         1 <0>        -0.1277
     25 C21         6.9403   -3.1277    2.6879 C.3       1 <0>        -0.0323
     26 C22         5.7262   -2.1891    2.7478 C.3       1 <0>        -0.0197
     27 C23         5.3714   -1.7731    1.3205 C.3       1 <0>        -0.0015
     28 C24         4.5504   -2.9723    3.3352 C.3       1 <0>        -0.0801
     29 C25         4.8276   -3.2834    4.7835 C.ar      1 <0>        -0.1018
     30 C26         5.4839   -4.4510    5.1257 C.ar      1 <0>        -0.0745
     31 C27         5.7390   -4.7371    6.4535 C.ar      1 <0>        -0.1476
     32 C28         5.3371   -3.8539    7.4411 C.ar      1 <0>         0.1102
     33 C29         4.6798   -2.6848    7.0971 C.ar      1 <0>        -0.1515
     34 C30         4.4305   -2.3982    5.7683 C.ar      1 <0>        -0.0824
     35 F2          5.5855   -4.1328    8.7394 F         1 <0>        -0.1336
     36 H1         -0.9591    1.9053    0.0259 H         1 <0>         0.1359
     37 H2          1.1563    3.1654    0.0076 H         1 <0>         0.1362
     38 H3          3.3051    1.9634   -0.0196 H         1 <0>         0.1314
     39 H4          1.2231   -1.7588   -0.0176 H         1 <0>         0.1315
     40 H5         -0.9258   -0.5567    0.0082 H         1 <0>         0.1363
     41 H6          3.5884   -1.6586   -0.5549 H         1 <0>         0.1387
     42 H7          4.4573   -0.1052   -0.5563 H         1 <0>         0.1369
     43 H8          5.2396    0.8337    1.5171 H         1 <0>         0.1323
     44 H9          3.5145    0.9563    1.9338 H         1 <0>         0.1375
     45 H10         5.0549    1.0296    3.9458 H         1 <0>         0.1221
     46 H11         3.8737   -0.3064    4.0024 H         1 <0>         0.1022
     47 H12         7.0287    0.2428    4.8075 H         1 <0>         0.1287
     48 H13         9.6556   -4.3421    3.3559 H         1 <0>         0.1945
     49 H14         8.7255    1.0257    4.7525 H         1 <0>         0.1377
     50 H15         9.4202    2.7997    6.3103 H         1 <0>         0.1494
     51 H16        11.4192   -0.0968    8.7267 H         1 <0>         0.1513
     52 H17        10.7187   -1.8769    7.1784 H         1 <0>         0.1463
     53 H18         7.2775   -3.1753    1.6525 H         1 <0>         0.0837
     54 H19         6.6090   -4.1253    2.9761 H         1 <0>         0.0930
     55 H20         5.2007   -2.6626    0.7142 H         1 <0>         0.1389
     56 H21         6.1918   -1.1947    0.8957 H         1 <0>         0.1370
     57 H22         3.6418   -2.3749    3.2594 H         1 <0>         0.0666
     58 H23         4.4209   -3.9025    2.7821 H         1 <0>         0.0988
     59 H24         5.7970   -5.1400    4.3553 H         1 <0>         0.1338
     60 H25         6.2514   -5.6495    6.7207 H         1 <0>         0.1386
     61 H26         4.3656   -1.9952    7.8666 H         1 <0>         0.1370
     62 H27         3.9218   -1.4842    5.4995 H         1 <0>         0.1261
     63 H28         3.4281   -1.4475    1.8397 H         1 <0>         0.4195
@<TRIPOS>BOND
     1    1    6 ar
     2    1    2 ar
     3    1   36 1
     4    2    3 ar
     5    2   37 1
     6    3    4 ar
     7    3   38 1
     8    4    5 ar
     9    4    7 1
    10    5    6 ar
    11    5   39 1
    12    6   40 1
    13    7    8 1
    14    7   41 1
    15    7   42 1
    16    8   27 1
    17    8    9 1
    18    8   63 1
    19    9   10 1
    20    9   43 1
    21    9   44 1
    22   10   11 1
    23   10   45 1
    24   10   46 1
    25   11   26 1
    26   11   12 2
    27   12   13 1
    28   12   47 1
    29   13   17 1
    30   13   14 2
    31   14   15 1
    32   14   25 1
    33   15   16 2
    34   15   48 1
    35   16   17 1
    36   17   18 1
    37   18   23 ar
    38   18   19 ar
    39   19   20 ar
    40   19   49 1
    41   20   21 ar
    42   20   50 1
    43   21   22 ar
    44   21   24 1
    45   22   23 ar
    46   22   51 1
    47   23   52 1
    48   25   26 1
    49   25   53 1
    50   25   54 1
    51   26   27 1
    52   26   28 1
    53   27   55 1
    54   27   56 1
    55   28   29 1
    56   28   57 1
    57   28   58 1
    58   29   34 ar
    59   29   30 ar
    60   30   31 ar
    61   30   59 1
    62   31   32 ar
    63   31   60 1
    64   32   33 ar
    65   32   35 1
    66   33   34 ar
    67   33   61 1
    68   34   62 1
@<TRIPOS>MOLECULE
CHEMBL271263__1
   63    68     0     0     0
SMALL
USER_CHARGES

@<TRIPOS>ATOM
      1 C1         -0.0167    1.3781    0.0096 C.ar      1 <0>        -0.0839
      2 C2          1.1709    2.0855    0.0021 C.ar      1 <0>        -0.1141
      3 C3          2.3773    1.4107   -0.0130 C.ar      1 <0>        -0.0953
      4 C4          2.3960    0.0285   -0.0201 C.ar      1 <0>        -0.1622
      5 C5          1.2084   -0.6789   -0.0117 C.ar      1 <0>        -0.0933
      6 C6          0.0021   -0.0041    0.0020 C.ar      1 <0>        -0.1132
      7 C7          3.7112   -0.7071   -0.0376 C.3       1 <0>         0.0428
      8 N1          4.1530   -0.9531    1.3416 N.4       1 <0>        -0.3764
      9 C8          4.3631    0.3303    2.0073 C.3       1 <0>        -0.0044
     10 C9          5.3068    0.1965    3.2019 C.3       1 <0>        -0.0956
     11 C10         5.2699   -1.2309    3.7006 C.2       1 <0>        -0.1491
     12 C11         4.9568   -1.4883    4.9670 C.2       1 <0>        -0.0325
     13 C12         4.8853   -2.9027    5.3706 C.2       1 <0>         0.1042
     14 C13         4.8270   -3.9101    4.4128 C.2       1 <0>        -0.2197
     15 C14         4.7657   -5.1183    5.0780 C.2       1 <0>         0.0686
     16 N2          4.7724   -4.8840    6.3719 N.2       1 <0>        -0.2664
     17 N3          4.8363   -3.4957    6.5819 N.pl3     1 <0>        -0.2819
     18 C15         4.8474   -2.8457    7.8232 C.ar      1 <0>         0.1298
     19 C16         5.5871   -1.6827    7.9923 C.ar      1 <0>        -0.1025
     20 C17         5.5968   -1.0436    9.2165 C.ar      1 <0>        -0.1348
     21 C18         4.8695   -1.5617   10.2750 C.ar      1 <0>         0.1120
     22 C19         4.1312   -2.7215   10.1084 C.ar      1 <0>        -0.1318
     23 C20         4.1143   -3.3604    8.8842 C.ar      1 <0>        -0.0732
     24 F1          4.8807   -0.9352   11.4719 F         1 <0>        -0.1276
     25 C21         4.8311   -3.5925    2.9399 C.3       1 <0>        -0.0325
     26 C22         5.6442   -2.3156    2.7201 C.3       1 <0>        -0.0239
     27 C23         5.3672   -1.7706    1.3121 C.3       1 <0>        -0.0023
     28 C24         7.1350   -2.6318    2.8557 C.3       1 <0>        -0.0578
     29 C25         7.4236   -3.1006    4.2585 C.ar      1 <0>        -0.0996
     30 C26         7.7597   -2.1843    5.2376 C.ar      1 <0>        -0.0878
     31 C27         8.0240   -2.6129    6.5245 C.ar      1 <0>        -0.1629
     32 C28         7.9522   -3.9608    6.8331 C.ar      1 <0>         0.1143
     33 C29         7.6156   -4.8776    5.8517 C.ar      1 <0>        -0.1466
     34 C30         7.3465   -4.4460    4.5667 C.ar      1 <0>        -0.0620
     35 F2          8.2109   -4.3811    8.0908 F         1 <0>        -0.1352
     36 H1         -0.9591    1.9053    0.0259 H         1 <0>         0.1353
     37 H2          1.1563    3.1654    0.0076 H         1 <0>         0.1356
     38 H3          3.3051    1.9634   -0.0196 H         1 <0>         0.1301
     39 H4          1.2231   -1.7588   -0.0176 H         1 <0>         0.1309
     40 H5         -0.9258   -0.5567    0.0082 H         1 <0>         0.1357
     41 H6          3.5884   -1.6586   -0.5549 H         1 <0>         0.1380
     42 H7          4.4573   -0.1052   -0.5563 H         1 <0>         0.1371
     43 H8          4.7897    1.0356    1.2941 H         1 <0>         0.1300
     44 H9          3.4030    0.7131    2.3535 H         1 <0>         0.1297
     45 H10         6.3217    0.4496    2.8951 H         1 <0>         0.1049
     46 H11         4.9862    0.8692    3.9973 H         1 <0>         0.1118
     47 H12         4.7631   -0.6925    5.6710 H         1 <0>         0.1404
     48 H13         4.7203   -6.0923    4.6137 H         1 <0>         0.1891
     49 H14         6.1547   -1.2785    7.1672 H         1 <0>         0.1411
     50 H15         6.1723   -0.1392    9.3485 H         1 <0>         0.1488
     51 H16         3.5649   -3.1242   10.9352 H         1 <0>         0.1507
     52 H17         3.5348   -4.2624    8.7534 H         1 <0>         0.1460
     53 H18         5.2862   -4.4157    2.3892 H         1 <0>         0.0975
     54 H19         3.8084   -3.4391    2.5956 H         1 <0>         0.0691
     55 H20         5.2297   -2.6018    0.6206 H         1 <0>         0.1394
     56 H21         6.2093   -1.1602    0.9858 H         1 <0>         0.1362
     57 H22         7.4061   -3.4151    2.1478 H         1 <0>         0.0921
     58 H23         7.7173   -1.7347    2.6454 H         1 <0>         0.0844
     59 H24         7.8159   -1.1330    4.9965 H         1 <0>         0.1257
     60 H25         8.2869   -1.8969    7.2891 H         1 <0>         0.1317
     61 H26         7.5596   -5.9293    6.0912 H         1 <0>         0.1335
     62 H27         7.0795   -5.1605    3.8021 H         1 <0>         0.1299
     63 H28         3.4300   -1.4591    1.8308 H         1 <0>         0.4220
@<TRIPOS>BOND
     1    1    6 ar
     2    1    2 ar
     3    1   36 1
     4    2    3 ar
     5    2   37 1
     6    3    4 ar
     7    3   38 1
     8    4    5 ar
     9    4    7 1
    10    5    6 ar
    11    5   39 1
    12    6   40 1
    13    7    8 1
    14    7   41 1
    15    7   42 1
    16    8   27 1
    17    8    9 1
    18    8   63 1
    19    9   10 1
    20    9   43 1
    21    9   44 1
    22   10   11 1
    23   10   45 1
    24   10   46 1
    25   11   26 1
    26   11   12 2
    27   12   13 1
    28   12   47 1
    29   13   17 1
    30   13   14 2
    31   14   15 1
    32   14   25 1
    33   15   16 2
    34   15   48 1
    35   16   17 1
    36   17   18 1
    37   18   23 ar
    38   18   19 ar
    39   19   20 ar
    40   19   49 1
    41   20   21 ar
    42   20   50 1
    43   21   22 ar
    44   21   24 1
    45   22   23 ar
    46   22   51 1
    47   23   52 1
    48   25   26 1
    49   25   53 1
    50   25   54 1
    51   26   27 1
    52   26   28 1
    53   27   55 1
    54   27   56 1
    55   28   29 1
    56   28   57 1
    57   28   58 1
    58   29   34 ar
    59   29   30 ar
    60   30   31 ar
    61   30   59 1
    62   31   32 ar
    63   31   60 1
    64   32   33 ar
    65   32   35 1
    66   33   34 ar
    67   33   61 1
    68   34   62 1
@<TRIPOS>MOLECULE
CHEMBL371376
   51    55     0     0     0
SMALL
USER_CHARGES

@<TRIPOS>ATOM
      1 C1          0.1023    1.5955   -0.0358 C.3       1 <0>        -0.1500
      2 C2          0.0502    0.0669    0.0013 C.3       1 <0>        -0.0119
      3 C3         -1.4260   -0.3615   -0.0222 C.3       1 <0>        -0.0348
      4 C4         -1.9262   -1.1666    1.1553 C.2       1 <0>        -0.2163
      5 C5         -3.1804   -1.6815    1.4721 C.2       1 <0>         0.0700
      6 N1         -3.0973   -2.3069    2.6200 N.2       1 <0>        -0.2799
      7 N2         -1.7807   -2.2179    3.0876 N.pl3     1 <0>        -0.3215
      8 C6         -1.0552   -1.5101    2.1653 C.2       1 <0>         0.1192
      9 C7          0.3623   -1.1326    2.1291 C.2       1 <0>        -0.1255
     10 C8          0.8933   -0.4044    1.1665 C.2       1 <0>        -0.0478
     11 C9          2.3658   -0.0677    1.1718 C.3       1 <0>        -0.0837
     12 C10         2.9713   -0.5401   -0.1556 C.3       1 <0>        -0.1124
     13 C11         2.1698    0.0465   -1.3186 C.3       1 <0>        -0.1333
     14 C12         0.7259   -0.4565   -1.2667 C.3       1 <0>        -0.1024
     15 H1          0.7208   -1.5464   -1.2579 H         1 <0>         0.0828
     16 C13        -0.0344    0.0475   -2.4951 C.3       1 <0>         0.1782
     17 H2         -1.0893   -0.2101   -2.4004 H         1 <0>         0.1133
     18 C14         0.5307   -0.5965   -3.7348 C.2       1 <0>        -0.2076
     19 C15        -0.0147   -1.6962   -4.4364 C.2       1 <0>        -0.2053
     20 C16         0.8043   -1.9408   -5.4750 C.2       1 <0>        -0.0364
     21 O1          1.8112   -1.0527   -5.4399 O.3       1 <0>        -0.1746
     22 C17         1.6477   -0.2318   -4.3896 C.2       1 <0>        -0.0336
     23 O2          0.1026    1.4667   -2.5909 O.3       1 <0>        -0.5455
     24 C18        -1.2918   -2.7569    4.2850 C.ar      1 <0>         0.1484
     25 C19         0.0043   -3.2513    4.3468 C.ar      1 <0>        -0.1050
     26 C20         0.4844   -3.7817    5.5280 C.ar      1 <0>        -0.1303
     27 C21        -0.3258   -3.8208    6.6505 C.ar      1 <0>         0.0972
     28 C22        -1.6189   -3.3286    6.5908 C.ar      1 <0>        -0.1318
     29 C23        -2.1009   -2.7922    5.4130 C.ar      1 <0>        -0.0830
     30 F1          0.1457   -4.3401    7.8051 F         1 <0>        -0.1333
     31 H3          1.1122    1.9187   -0.2883 H         1 <0>         0.0607
     32 H4         -0.5958    1.9647   -0.7871 H         1 <0>         0.0887
     33 H5         -0.1725    1.9923    0.9415 H         1 <0>         0.0474
     34 H6         -2.0357    0.5390   -0.0966 H         1 <0>         0.0778
     35 H7         -1.5906   -0.9495   -0.9252 H         1 <0>         0.0727
     36 H8         -4.0726   -1.5817    0.8719 H         1 <0>         0.1905
     37 H9          0.9981   -1.4496    2.9425 H         1 <0>         0.1178
     38 H10         2.4961    1.0098    1.2723 H         1 <0>         0.0840
     39 H11         2.8563   -0.5768    2.0014 H         1 <0>         0.0749
     40 H12         4.0065   -0.2054   -0.2223 H         1 <0>         0.0712
     41 H13         2.9375   -1.6285   -0.2034 H         1 <0>         0.0652
     42 H14         2.1764    1.1343   -1.2500 H         1 <0>         0.0751
     43 H15         2.6250   -0.2575   -2.2612 H         1 <0>         0.0707
     44 H16        -0.9157   -2.2365   -4.1860 H         1 <0>         0.1490
     45 H17         0.6745   -2.7196   -6.2119 H         1 <0>         0.2031
     46 H18         2.3032    0.5817   -4.1157 H         1 <0>         0.1982
     47 H19         1.0171    1.7686   -2.6776 H         1 <0>         0.3692
     48 H20         0.6364   -3.2214    3.4716 H         1 <0>         0.1420
     49 H21         1.4923   -4.1667    5.5764 H         1 <0>         0.1470
     50 H22        -2.2494   -3.3602    7.4671 H         1 <0>         0.1469
     51 H23        -3.1077   -2.4040    5.3682 H         1 <0>         0.1445
@<TRIPOS>BOND
     1    1    2 1
     2    1   31 1
     3    1   32 1
     4    1   33 1
     5    2   10 1
     6    2   14 1
     7    2    3 1
     8    3    4 1
     9    3   34 1
    10    3   35 1
    11    4    8 2
    12    4    5 1
    13    5    6 2
    14    5   36 1
    15    6    7 1
    16    7    8 1
    17    7   24 1
    18    8    9 1
    19    9   10 2
    20    9   37 1
    21   10   11 1
    22   11   12 1
    23   11   38 1
    24   11   39 1
    25   12   13 1
    26   12   40 1
    27   12   41 1
    28   13   14 1
    29   13   42 1
    30   13   43 1
    31   14   15 1
    32   14   16 1
    33   16   17 1
    34   16   18 1
    35   16   23 1
    36   18   22 2
    37   18   19 1
    38   19   20 2
    39   19   44 1
    40   20   21 1
    41   20   45 1
    42   21   22 1
    43   22   46 1
    44   23   47 1
    45   24   29 ar
    46   24   25 ar
    47   25   26 ar
    48   25   48 1
    49   26   27 ar
    50   26   49 1
    51   27   28 ar
    52   27   30 1
    53   28   29 ar
    54   28   50 1
    55   29   51 1
@<TRIPOS>MOLECULE
CHEMBL65570
   49    53     0     0     0
SMALL
USER_CHARGES

@<TRIPOS>ATOM
      1 C1         -0.0173    1.4248    0.0099 C.3       1 <0>         0.0220
      2 O1          0.0021   -0.0041    0.0020 O.3       1 <0>        -0.3002
      3 C2          0.6056   -0.6069   -1.0554 C.ar      1 <0>         0.1458
      4 C3          1.1740    0.1579   -2.0642 C.ar      1 <0>        -0.2277
      5 C4          1.7858   -0.4580   -3.1401 C.ar      1 <0>        -0.0740
      6 C5          1.8282   -1.8377   -3.2300 C.ar      1 <0>        -0.1735
      7 C6          1.2605   -2.6158   -2.2359 C.ar      1 <0>         0.1473
      8 C7          0.6628   -1.9953   -1.1309 C.ar      1 <0>        -0.0949
      9 C8          0.0910   -2.8569   -0.0705 C.ar      1 <0>        -0.1491
     10 C9         -0.7527   -2.3460    0.9084 C.ar      1 <0>        -0.0310
     11 C10        -1.2775   -3.1905    1.8659 C.ar      1 <0>        -0.2654
     12 C11        -0.9639   -4.5447    1.8473 C.ar      1 <0>         0.2908
     13 C12        -0.1135   -5.0547    0.8721 C.ar      1 <0>        -0.1549
     14 C13         0.4209   -4.2147   -0.0786 C.ar      1 <0>        -0.0756
     15 C14         1.3837   -4.7304   -1.1158 C.3       1 <0>         0.1864
     16 O2          1.2653   -3.9696   -2.3244 O.3       1 <0>        -0.3070
     17 C15         1.0715   -6.1748   -1.4110 C.ar      1 <0>        -0.0686
     18 C16         0.1047   -6.4960   -2.3453 C.ar      1 <0>        -0.0867
     19 C17        -0.1817   -7.8210   -2.6160 C.ar      1 <0>        -0.1229
     20 C18         0.4990   -8.8248   -1.9527 C.ar      1 <0>        -0.1200
     21 C19         1.4664   -8.5036   -1.0190 C.ar      1 <0>        -0.1204
     22 C20         1.7558   -7.1786   -0.7514 C.ar      1 <0>        -0.1031
     23 N1         -1.5050   -5.3969    2.8125 N.2       1 <0>        -1.0818
     24 S1         -2.5176   -4.7936    3.9757 S.o2      1 <0>         2.6317
     25 O3         -1.7356   -3.9253    4.7842 O.2       1 <0>        -1.0194
     26 O4         -3.6924   -4.3580    3.3053 O.2       1 <0>        -1.0193
     27 C21        -2.9949   -6.1438    5.0023 C.2       1 <0>        -0.6684
     28 C22        -2.4020   -6.6115    6.1279 C.2       1 <0>        -0.0450
     29 C23        -2.9594   -7.6966    6.7778 C.2       1 <0>        -0.1805
     30 C24        -4.0824   -8.2610    6.2703 C.2       1 <0>        -0.1688
     31 S2         -4.3893   -7.2459    4.8341 S.3       1 <0>         0.1406
     32 H1          1.0053    1.8021    0.0021 H         1 <0>         0.0527
     33 H2         -0.5445    1.7859   -0.8732 H         1 <0>         0.0528
     34 H3         -0.5275    1.7763    0.9067 H         1 <0>         0.0975
     35 H4          1.1386    1.2359   -2.0085 H         1 <0>         0.1253
     36 H5          2.2341    0.1432   -3.9172 H         1 <0>         0.1250
     37 H6          2.3047   -2.3085   -4.0773 H         1 <0>         0.1274
     38 H7         -0.9961   -1.2939    0.9202 H         1 <0>         0.1308
     39 H8         -1.9326   -2.7989    2.6300 H         1 <0>         0.1004
     40 H9          0.1271   -6.1075    0.8608 H         1 <0>         0.1214
     41 H10         2.4011   -4.6560   -0.7317 H         1 <0>         0.0835
     42 H11        -0.4271   -5.7118   -2.8635 H         1 <0>         0.1252
     43 H12        -0.9376   -8.0720   -3.3455 H         1 <0>         0.1199
     44 H13         0.2747   -9.8600   -2.1637 H         1 <0>         0.1182
     45 H14         1.9980   -9.2878   -0.5005 H         1 <0>         0.1215
     46 H15         2.5143   -6.9277   -0.0247 H         1 <0>         0.1240
     47 H16        -1.5072   -6.1435    6.5110 H         1 <0>         0.1429
     48 H17        -2.5067   -8.0892    7.6763 H         1 <0>         0.1365
     49 H18        -4.6473   -9.1036    6.6409 H         1 <0>         0.1885
@<TRIPOS>BOND
     1    1    2 1
     2    1   32 1
     3    1   33 1
     4    1   34 1
     5    2    3 1
     6    3    8 ar
     7    3    4 ar
     8    4    5 ar
     9    4   35 1
    10    5    6 ar
    11    5   36 1
    12    6    7 ar
    13    6   37 1
    14    7   16 1
    15    7    8 ar
    16    8    9 1
    17    9   14 ar
    18    9   10 ar
    19   10   11 ar
    20   10   38 1
    21   11   12 ar
    22   11   39 1
    23   12   13 ar
    24   12   23 1
    25   13   14 ar
    26   13   40 1
    27   14   15 1
    28   15   16 1
    29   15   17 1
    30   15   41 1
    31   17   22 ar
    32   17   18 ar
    33   18   19 ar
    34   18   42 1
    35   19   20 ar
    36   19   43 1
    37   20   21 ar
    38   20   44 1
    39   21   22 ar
    40   21   45 1
    41   22   46 1
    42   23   24 1
    43   24   25 2
    44   24   26 2
    45   24   27 1
    46   27   31 1
    47   27   28 2
    48   28   29 1
    49   28   47 1
    50   29   30 2
    51   29   48 1
    52   30   31 1
    53   30   49 1
@<TRIPOS>MOLECULE
CHEMBL65570__1
   49    53     0     0     0
SMALL
USER_CHARGES

@<TRIPOS>ATOM
      1 C1         -0.0173    1.4248    0.0099 C.3       1 <0>         0.0218
      2 O1          0.0021   -0.0041    0.0020 O.3       1 <0>        -0.2996
      3 C2          0.6056   -0.6069   -1.0554 C.ar      1 <0>         0.1457
      4 C3          1.1740    0.1579   -2.0642 C.ar      1 <0>        -0.2288
      5 C4          1.7850   -0.4580   -3.1405 C.ar      1 <0>        -0.0730
      6 C5          1.8274   -1.8377   -3.2305 C.ar      1 <0>        -0.1776
      7 C6          1.2613   -2.6158   -2.2354 C.ar      1 <0>         0.1496
      8 C7          0.6628   -1.9953   -1.1309 C.ar      1 <0>        -0.0963
      9 C8          0.0910   -2.8569   -0.0705 C.ar      1 <0>        -0.1459
     10 C9         -0.7527   -2.3460    0.9084 C.ar      1 <0>        -0.0307
     11 C10        -1.2775   -3.1905    1.8659 C.ar      1 <0>        -0.2645
     12 C11        -0.9632   -4.5446    1.8478 C.ar      1 <0>         0.2920
     13 C12        -0.1128   -5.0545    0.8727 C.ar      1 <0>        -0.1585
     14 C13         0.4209   -4.2147   -0.0786 C.ar      1 <0>        -0.0708
     15 C14         1.3837   -4.7304   -1.1158 C.3       1 <0>         0.1840
     16 O2          1.2669   -3.9696   -2.3235 O.3       1 <0>        -0.3024
     17 C15         2.7903   -4.6276   -0.5847 C.ar      1 <0>        -0.0998
     18 C16         3.4526   -3.4145   -0.6122 C.ar      1 <0>        -0.1046
     19 C17         4.7428   -3.3202   -0.1250 C.ar      1 <0>        -0.1212
     20 C18         5.3705   -4.4389    0.3901 C.ar      1 <0>        -0.1221
     21 C19         4.7079   -5.6518    0.4185 C.ar      1 <0>        -0.1224
     22 C20         3.4162   -5.7451   -0.0648 C.ar      1 <0>        -0.1012
     23 N1         -1.5035   -5.3966    2.8136 N.2       1 <0>        -1.0832
     24 S1         -2.5161   -4.7933    3.9768 S.o2      1 <0>         2.6324
     25 O3         -1.7344   -3.9242    4.7847 O.2       1 <0>        -1.0190
     26 O4         -3.6913   -4.3587    3.3065 O.2       1 <0>        -1.0191
     27 C21        -2.9924   -6.1433    5.0041 C.2       1 <0>        -0.6689
     28 C22        -2.3989   -6.6101    6.1298 C.2       1 <0>        -0.0448
     29 C23        -2.9556   -7.6953    6.7804 C.2       1 <0>        -0.1806
     30 C24        -4.0785   -8.2605    6.2734 C.2       1 <0>        -0.1686
     31 S2         -4.3862   -7.2462    4.8369 S.3       1 <0>         0.1408
     32 H1          1.0053    1.8021    0.0021 H         1 <0>         0.0527
     33 H2         -0.5445    1.7859   -0.8732 H         1 <0>         0.0531
     34 H3         -0.5275    1.7763    0.9067 H         1 <0>         0.0976
     35 H4          1.1386    1.2359   -2.0085 H         1 <0>         0.1257
     36 H5          2.2327    0.1432   -3.9180 H         1 <0>         0.1253
     37 H6          2.3032   -2.3085   -4.0781 H         1 <0>         0.1280
     38 H7         -0.9961   -1.2939    0.9202 H         1 <0>         0.1308
     39 H8         -1.9326   -2.7989    2.6300 H         1 <0>         0.1005
     40 H9          0.1284   -6.1072    0.8618 H         1 <0>         0.1184
     41 H10         1.1579   -5.7751   -1.3293 H         1 <0>         0.1277
     42 H11         2.9621   -2.5405   -1.0147 H         1 <0>         0.1275
     43 H12         5.2604   -2.3727   -0.1471 H         1 <0>         0.1182
     44 H13         6.3788   -4.3654    0.7701 H         1 <0>         0.1178
     45 H14         5.1985   -6.5259    0.8206 H         1 <0>         0.1209
     46 H15         2.8971   -6.6919   -0.0392 H         1 <0>         0.1251
     47 H16        -1.5043   -6.1415    6.5125 H         1 <0>         0.1429
     48 H17        -2.5024   -8.0871    7.6790 H         1 <0>         0.1366
     49 H18        -4.6428   -9.1032    6.6446 H         1 <0>         0.1886
@<TRIPOS>BOND
     1    1    2 1
     2    1   32 1
     3    1   33 1
     4    1   34 1
     5    2    3 1
     6    3    8 ar
     7    3    4 ar
     8    4    5 ar
     9    4   35 1
    10    5    6 ar
    11    5   36 1
    12    6    7 ar
    13    6   37 1
    14    7   16 1
    15    7    8 ar
    16    8    9 1
    17    9   14 ar
    18    9   10 ar
    19   10   11 ar
    20   10   38 1
    21   11   12 ar
    22   11   39 1
    23   12   13 ar
    24   12   23 1
    25   13   14 ar
    26   13   40 1
    27   14   15 1
    28   15   16 1
    29   15   17 1
    30   15   41 1
    31   17   22 ar
    32   17   18 ar
    33   18   19 ar
    34   18   42 1
    35   19   20 ar
    36   19   43 1
    37   20   21 ar
    38   20   44 1
    39   21   22 ar
    40   21   45 1
    41   22   46 1
    42   23   24 1
    43   24   25 2
    44   24   26 2
    45   24   27 1
    46   27   31 1
    47   27   28 2
    48   28   29 1
    49   28   47 1
    50   29   30 2
    51   29   48 1
    52   30   31 1
    53   30   49 1
@<TRIPOS>MOLECULE
CHEMBL568868
   64    68     0     0     0
SMALL
USER_CHARGES

@<TRIPOS>ATOM
      1 C1          1.6930    0.8462   -0.2935 C.3       1 <0>        -0.1731
      2 C2          1.3839   -0.6297   -0.5526 C.3       1 <0>        -0.0387
      3 C3          0.0796   -0.9797    0.1803 C.3       1 <0>         0.0433
      4 N1          0.1428   -2.0237    1.2113 N.pl3     1 <0>        -0.4044
      5 C4         -0.7889   -2.5319    2.0454 C.cat     1 <0>         0.2891
      6 N2         -0.2443   -3.4463    2.7994 N.pl3     1 <0>        -0.4646
      7 C5          1.0582   -3.5732    2.4852 C.2       1 <0>         0.0849
      8 C6          1.3268   -2.6728    1.4643 C.2       1 <0>         0.1138
      9 C7          2.5529   -2.3793    0.7209 C.2       1 <0>        -0.1420
     10 C8          2.6163   -1.4363   -0.2039 C.2       1 <0>        -0.0189
     11 C9          3.8916   -1.1766   -0.9678 C.3       1 <0>        -0.0897
     12 C10         3.5846   -1.2823   -2.4667 C.3       1 <0>        -0.1204
     13 C11         2.4120   -0.3633   -2.8125 C.3       1 <0>        -0.1236
     14 C12         1.1583   -0.8047   -2.0548 C.3       1 <0>        -0.0986
     15 H1          0.9527   -1.8529   -2.2717 H         1 <0>         0.0862
     16 C13        -0.0315    0.0506   -2.4950 C.3       1 <0>         0.1341
     17 C14        -0.0995    0.0818   -4.0232 C.3       1 <0>        -0.1541
     18 C15        -1.3244   -0.5496   -1.9391 C.3       1 <0>        -0.1657
     19 C16        -2.5159   -0.0316   -2.7473 C.3       1 <0>        -0.0833
     20 C17        -3.7894   -0.6227   -2.1998 C.ar      1 <0>        -0.0915
     21 C18        -4.2635   -1.8227   -2.6958 C.ar      1 <0>        -0.1186
     22 C19        -5.4317   -2.3650   -2.1936 C.ar      1 <0>        -0.1154
     23 C20        -6.1254   -1.7075   -1.1950 C.ar      1 <0>        -0.1207
     24 C21        -5.6508   -0.5080   -0.6983 C.ar      1 <0>        -0.1172
     25 C22        -4.4804    0.0322   -1.1975 C.ar      1 <0>        -0.1221
     26 O1          0.1283    1.3809   -1.9981 O.3       1 <0>        -0.5469
     27 C23         2.0259   -4.5019    3.1133 C.ar      1 <0>        -0.0751
     28 C24         3.2934   -4.0491    3.4799 C.ar      1 <0>        -0.0509
     29 C25         4.1911   -4.9181    4.0646 C.ar      1 <0>        -0.1475
     30 C26         3.8358   -6.2387    4.2875 C.ar      1 <0>         0.1369
     31 C27         2.5781   -6.6934    3.9248 C.ar      1 <0>        -0.1474
     32 C28         1.6708   -5.8307    3.3456 C.ar      1 <0>        -0.0639
     33 F1          4.7187   -7.0859    4.8601 F         1 <0>        -0.1228
     34 H2          1.8822    1.3497   -1.2416 H         1 <0>         0.1197
     35 H3          0.8426    1.3138    0.2028 H         1 <0>         0.0636
     36 H4          2.5743    0.9266    0.3428 H         1 <0>         0.0651
     37 H5         -0.2952   -0.0696    0.6487 H         1 <0>         0.1152
     38 H6         -0.6503   -1.2914   -0.5667 H         1 <0>         0.1622
     39 H7         -1.8247   -2.2282    2.0829 H         1 <0>         0.2612
     40 H8          3.4460   -2.9413    0.9510 H         1 <0>         0.1527
     41 H9          4.2606   -0.1771   -0.7378 H         1 <0>         0.0947
     42 H10         4.6419   -1.9180   -0.6932 H         1 <0>         0.0873
     43 H11         4.4623   -0.9826   -3.0394 H         1 <0>         0.0822
     44 H12         3.3242   -2.3118   -2.7126 H         1 <0>         0.0682
     45 H13         2.6609    0.6608   -2.5342 H         1 <0>         0.0840
     46 H14         2.2211   -0.4084   -3.8847 H         1 <0>         0.0842
     47 H15        -0.1825   -0.9361   -4.4040 H         1 <0>         0.0728
     48 H16        -0.9694    0.6590   -4.3365 H         1 <0>         0.0758
     49 H17         0.8050    0.5447   -4.4177 H         1 <0>         0.0751
     50 H18        -1.2811   -1.6363   -2.0116 H         1 <0>         0.0823
     51 H19        -1.4401   -0.2594   -0.8948 H         1 <0>         0.0801
     52 H20        -2.5592    1.0551   -2.6748 H         1 <0>         0.0838
     53 H21        -2.4002   -0.3217   -3.7916 H         1 <0>         0.0862
     54 H22        -3.7215   -2.3364   -3.4760 H         1 <0>         0.1212
     55 H23        -5.8025   -3.3022   -2.5817 H         1 <0>         0.1239
     56 H24        -7.0385   -2.1308   -0.8031 H         1 <0>         0.1238
     57 H25        -6.1930    0.0059    0.0817 H         1 <0>         0.1236
     58 H26        -4.1076    0.9675   -0.8069 H         1 <0>         0.1206
     59 H27        -0.1170    1.4856   -1.0686 H         1 <0>         0.3720
     60 H28         3.5715   -3.0202    3.3058 H         1 <0>         0.1427
     61 H29         5.1727   -4.5685    4.3487 H         1 <0>         0.1520
     62 H30         2.3062   -7.7238    4.1001 H         1 <0>         0.1507
     63 H31         0.6891   -6.1849    3.0676 H         1 <0>         0.1371
     64 H32        -0.7071   -3.9566    3.4823 H         1 <0>         0.4648
@<TRIPOS>BOND
     1    1    2 1
     2    1   34 1
     3    1   35 1
     4    1   36 1
     5    2   10 1
     6    2   14 1
     7    2    3 1
     8    3    4 1
     9    3   37 1
    10    3   38 1
    11    4    8 1
    12    4    5 1
    13    5    6 2
    14    5   39 1
    15    6    7 1
    16    6   64 1
    17    7    8 2
    18    7   27 1
    19    8    9 1
    20    9   10 2
    21    9   40 1
    22   10   11 1
    23   11   12 1
    24   11   41 1
    25   11   42 1
    26   12   13 1
    27   12   43 1
    28   12   44 1
    29   13   14 1
    30   13   45 1
    31   13   46 1
    32   14   15 1
    33   14   16 1
    34   16   17 1
    35   16   18 1
    36   16   26 1
    37   17   47 1
    38   17   48 1
    39   17   49 1
    40   18   19 1
    41   18   50 1
    42   18   51 1
    43   19   20 1
    44   19   52 1
    45   19   53 1
    46   20   25 ar
    47   20   21 ar
    48   21   22 ar
    49   21   54 1
    50   22   23 ar
    51   22   55 1
    52   23   24 ar
    53   23   56 1
    54   24   25 ar
    55   24   57 1
    56   25   58 1
    57   26   59 1
    58   27   32 ar
    59   27   28 ar
    60   28   29 ar
    61   28   60 1
    62   29   30 ar
    63   29   61 1
    64   30   31 ar
    65   30   33 1
    66   31   32 ar
    67   31   62 1
    68   32   63 1
@<TRIPOS>MOLECULE
CHEMBL568868__1
   63    67     0     0     0
SMALL
USER_CHARGES

@<TRIPOS>ATOM
      1 C1          1.6930    0.8462   -0.2935 C.3       1 <0>        -0.1667
      2 C2          1.3839   -0.6297   -0.5526 C.3       1 <0>        -0.0234
      3 C3          0.0796   -0.9797    0.1803 C.3       1 <0>         0.0577
      4 N1          0.1428   -2.0237    1.2113 N.pl3     1 <0>        -0.4479
      5 C4         -0.7889   -2.5319    2.0454 C.2       1 <0>         0.1988
      6 N2         -0.2443   -3.4463    2.7994 N.2       1 <0>        -0.4717
      7 C5          1.0582   -3.5732    2.4852 C.2       1 <0>         0.0548
      8 C6          1.3268   -2.6728    1.4643 C.2       1 <0>         0.0233
      9 C7          2.5529   -2.3793    0.7209 C.2       1 <0>        -0.0918
     10 C8          2.6163   -1.4363   -0.2039 C.2       1 <0>        -0.0922
     11 C9          3.8916   -1.1766   -0.9678 C.3       1 <0>        -0.0774
     12 C10         3.5846   -1.2823   -2.4667 C.3       1 <0>        -0.1179
     13 C11         2.4120   -0.3633   -2.8125 C.3       1 <0>        -0.1182
     14 C12         1.1583   -0.8047   -2.0548 C.3       1 <0>        -0.0963
     15 H1          0.9527   -1.8529   -2.2717 H         1 <0>         0.0803
     16 C13        -0.0315    0.0506   -2.4950 C.3       1 <0>         0.1364
     17 C14        -0.0995    0.0818   -4.0232 C.3       1 <0>        -0.1500
     18 C15        -1.3244   -0.5496   -1.9391 C.3       1 <0>        -0.1634
     19 C16        -2.5159   -0.0316   -2.7473 C.3       1 <0>        -0.0823
     20 C17        -3.7894   -0.6227   -2.1998 C.ar      1 <0>        -0.0867
     21 C18        -4.2635   -1.8227   -2.6958 C.ar      1 <0>        -0.1182
     22 C19        -5.4317   -2.3650   -2.1936 C.ar      1 <0>        -0.1162
     23 C20        -6.1254   -1.7075   -1.1950 C.ar      1 <0>        -0.1228
     24 C21        -5.6508   -0.5080   -0.6983 C.ar      1 <0>        -0.1168
     25 C22        -4.4804    0.0322   -1.1975 C.ar      1 <0>        -0.1199
     26 O1          0.1283    1.3809   -1.9981 O.3       1 <0>        -0.5534
     27 C23         2.0259   -4.5019    3.1133 C.ar      1 <0>        -0.0072
     28 C24         3.0392   -5.0794    2.3482 C.ar      1 <0>        -0.0827
     29 C25         3.9381   -5.9438    2.9380 C.ar      1 <0>        -0.1511
     30 C26         3.8353   -6.2390    4.2879 C.ar      1 <0>         0.0967
     31 C27         2.8302   -5.6683    5.0521 C.ar      1 <0>        -0.1515
     32 C28         1.9304   -4.7975    4.4732 C.ar      1 <0>        -0.0653
     33 F1          4.7177   -7.0865    4.8608 F         1 <0>        -0.1397
     34 H2          1.8822    1.3497   -1.2416 H         1 <0>         0.1083
     35 H3          0.8426    1.3138    0.2028 H         1 <0>         0.0555
     36 H4          2.5743    0.9266    0.3428 H         1 <0>         0.0571
     37 H5         -0.2952   -0.0696    0.6487 H         1 <0>         0.0836
     38 H6         -0.6503   -1.2914   -0.5667 H         1 <0>         0.1338
     39 H7         -1.8247   -2.2282    2.0829 H         1 <0>         0.2070
     40 H8          3.4460   -2.9413    0.9510 H         1 <0>         0.1314
     41 H9          4.2606   -0.1771   -0.7378 H         1 <0>         0.0798
     42 H10         4.6419   -1.9180   -0.6932 H         1 <0>         0.0757
     43 H11         4.4623   -0.9826   -3.0394 H         1 <0>         0.0707
     44 H12         3.3242   -2.3118   -2.7126 H         1 <0>         0.0638
     45 H13         2.6609    0.6608   -2.5342 H         1 <0>         0.0784
     46 H14         2.2211   -0.4084   -3.8847 H         1 <0>         0.0739
     47 H15        -0.1825   -0.9361   -4.4040 H         1 <0>         0.0697
     48 H16        -0.9694    0.6590   -4.3365 H         1 <0>         0.0707
     49 H17         0.8050    0.5447   -4.4177 H         1 <0>         0.0708
     50 H18        -1.2811   -1.6363   -2.0116 H         1 <0>         0.0809
     51 H19        -1.4401   -0.2594   -0.8948 H         1 <0>         0.0859
     52 H20        -2.5592    1.0551   -2.6748 H         1 <0>         0.0795
     53 H21        -2.4002   -0.3217   -3.7916 H         1 <0>         0.0814
     54 H22        -3.7215   -2.3364   -3.4760 H         1 <0>         0.1199
     55 H23        -5.8025   -3.3022   -2.5817 H         1 <0>         0.1219
     56 H24        -7.0385   -2.1308   -0.8031 H         1 <0>         0.1217
     57 H25        -6.1930    0.0059    0.0817 H         1 <0>         0.1219
     58 H26        -4.1076    0.9675   -0.8069 H         1 <0>         0.1199
     59 H27        -0.1170    1.4856   -1.0686 H         1 <0>         0.3745
     60 H28         3.1197   -4.8505    1.2958 H         1 <0>         0.1331
     61 H29         4.7230   -6.3914    2.3465 H         1 <0>         0.1376
     62 H30         2.7538   -5.9021    6.1038 H         1 <0>         0.1377
     63 H31         1.1503   -4.3494    5.0708 H         1 <0>         0.1369
@<TRIPOS>BOND
     1    1    2 1
     2    1   34 1
     3    1   35 1
     4    1   36 1
     5    2   10 1
     6    2   14 1
     7    2    3 1
     8    3    4 1
     9    3   37 1
    10    3   38 1
    11    4    8 1
    12    4    5 1
    13    5    6 2
    14    5   39 1
    15    6    7 1
    16    7    8 2
    17    7   27 1
    18    8    9 1
    19    9   10 2
    20    9   40 1
    21   10   11 1
    22   11   12 1
    23   11   41 1
    24   11   42 1
    25   12   13 1
    26   12   43 1
    27   12   44 1
    28   13   14 1
    29   13   45 1
    30   13   46 1
    31   14   15 1
    32   14   16 1
    33   16   17 1
    34   16   18 1
    35   16   26 1
    36   17   47 1
    37   17   48 1
    38   17   49 1
    39   18   19 1
    40   18   50 1
    41   18   51 1
    42   19   20 1
    43   19   52 1
    44   19   53 1
    45   20   25 ar
    46   20   21 ar
    47   21   22 ar
    48   21   54 1
    49   22   23 ar
    50   22   55 1
    51   23   24 ar
    52   23   56 1
    53   24   25 ar
    54   24   57 1
    55   25   58 1
    56   26   59 1
    57   27   32 ar
    58   27   28 ar
    59   28   29 ar
    60   28   60 1
    61   29   30 ar
    62   29   61 1
    63   30   31 ar
    64   30   33 1
    65   31   32 ar
    66   31   62 1
    67   32   63 1
@<TRIPOS>MOLECULE
CHEMBL465919
   62    65     0     0     0
SMALL
USER_CHARGES

@<TRIPOS>ATOM
      1 C1          0.3645    1.3262    0.3781 C.3       1 <0>        -0.1804
      2 C2          0.7704   -0.1330    0.1613 C.3       1 <0>         0.0995
      3 N1          1.2712   -0.6926    1.4192 N.am      1 <0>        -0.6079
      4 C3          0.3295   -1.1309    2.4523 C.3       1 <0>         0.0892
      5 C4         -0.0192   -2.6043    2.2325 C.3       1 <0>         0.0644
      6 C5         -1.0027   -3.0621    3.3115 C.3       1 <0>         0.0969
      7 N2         -2.2142   -2.2409    3.2480 N.am      1 <0>        -0.7284
      8 C6         -3.1792   -2.3905    4.1769 C.2       1 <0>         0.6135
      9 O1         -3.0441   -3.2077    5.0684 O.2       1 <0>        -0.5530
     10 C7         -4.3929   -1.5678    4.1133 C.2       1 <0>        -0.3717
     11 C8         -4.6946   -0.5863    3.1397 C.2       1 <0>         0.1215
     12 N3         -5.8602   -0.0762    3.4223 N.2       1 <0>        -0.2905
     13 N4         -6.3652   -0.6900    4.5736 N.pl3     1 <0>        -0.3483
     14 C9         -5.4695   -1.6091    4.9966 C.2       1 <0>         0.4485
     15 N5         -5.5960   -2.4315    6.0975 N.pl3     1 <0>        -0.8242
     16 C10        -7.5953   -0.4036    5.1825 C.ar      1 <0>         0.1437
     17 C11        -8.3226   -1.4179    5.7906 C.ar      1 <0>        -0.1187
     18 C12        -9.5341   -1.1339    6.3898 C.ar      1 <0>        -0.1248
     19 C13       -10.0234    0.1616    6.3844 C.ar      1 <0>         0.1007
     20 C14        -9.2996    1.1745    5.7779 C.ar      1 <0>        -0.1281
     21 C15        -8.0848    0.8956    5.1831 C.ar      1 <0>        -0.0770
     22 F1        -11.2087    0.4375    6.9711 F         1 <0>        -0.1311
     23 C16         1.2550   -3.4475    2.3131 C.3       1 <0>         0.4800
     24 F2          1.9191   -3.1752    3.5140 F         1 <0>        -0.1523
     25 F3          0.9200   -4.8048    2.2628 F         1 <0>        -0.1780
     26 F4          2.0910   -3.1333    1.2363 F         1 <0>        -0.1661
     27 O2         -0.6163   -2.7655    0.9443 O.3       1 <0>        -0.5233
     28 C17         2.5983   -0.8042    1.6260 C.2       1 <0>         0.5714
     29 O3          3.0134   -1.3253    2.6430 O.2       1 <0>        -0.5232
     30 C18         3.5482   -0.2937    0.6173 C.ar      1 <0>        -0.1589
     31 C19         3.3529    0.9732    0.0493 C.ar      1 <0>        -0.0817
     32 C20         4.2210    1.4585   -0.8830 C.ar      1 <0>        -0.1340
     33 C21         5.3176    0.6976   -1.2842 C.ar      1 <0>         0.1139
     34 C22         5.5250   -0.5767   -0.7206 C.ar      1 <0>        -0.1193
     35 C23         4.6396   -1.0679    0.2356 C.ar      1 <0>        -0.0038
     36 C24         6.7415   -1.1029   -1.3465 C.2       1 <0>        -0.1935
     37 C25         7.1749   -0.1672   -2.2052 C.2       1 <0>         0.0482
     38 N6          6.3363    0.9141   -2.1804 N.pl3     1 <0>        -0.5926
     39 H1          6.4449    1.7150   -2.7167 H         1 <0>         0.4176
     40 H2          1.0875    1.8108    1.0342 H         1 <0>         0.0663
     41 H3          0.3408    1.8431   -0.5812 H         1 <0>         0.0728
     42 H4         -0.6240    1.3642    0.8359 H         1 <0>         0.0606
     43 H5         -0.0954   -0.7053   -0.1717 H         1 <0>         0.0825
     44 H6          1.5527   -0.1838   -0.5960 H         1 <0>         0.0936
     45 H7          0.7849   -1.0079    3.4349 H         1 <0>         0.1124
     46 H8         -0.5783   -0.5303    2.3948 H         1 <0>         0.1014
     47 H9         -1.2633   -4.1074    3.1457 H         1 <0>         0.0954
     48 H10        -0.5414   -2.9539    4.2931 H         1 <0>         0.0972
     49 H11        -2.3219   -1.5895    2.5374 H         1 <0>         0.3946
     50 H12        -4.0670   -0.3076    2.3061 H         1 <0>         0.1927
     51 H13        -4.8901   -3.0594    6.3176 H         1 <0>         0.4338
     52 H14        -6.3909   -2.3818    6.6512 H         1 <0>         0.4042
     53 H15        -7.9415   -2.4284    5.7948 H         1 <0>         0.1401
     54 H16       -10.1003   -1.9227    6.8627 H         1 <0>         0.1498
     55 H17        -9.6832    2.1841    5.7741 H         1 <0>         0.1493
     56 H18        -7.5182    1.6867    4.7147 H         1 <0>         0.1482
     57 H19        -1.4305   -2.2584    0.8220 H         1 <0>         0.3875
     58 H20         2.5060    1.5705    0.3532 H         1 <0>         0.1407
     59 H21         4.0581    2.4359   -1.3126 H         1 <0>         0.1250
     60 H22         4.7964   -2.0424    0.6738 H         1 <0>         0.1305
     61 H23         7.2015   -2.0607   -1.1531 H         1 <0>         0.1503
     62 H24         8.0552   -0.2547   -2.8247 H         1 <0>         0.1735
@<TRIPOS>BOND
     1    1    2 1
     2    1   40 1
     3    1   41 1
     4    1   42 1
     5    2    3 1
     6    2   43 1
     7    2   44 1
     8    3    4 1
     9    3   28 am
    10    4    5 1
    11    4   45 1
    12    4   46 1
    13    5    6 1
    14    5   23 1
    15    5   27 1
    16    6    7 1
    17    6   47 1
    18    6   48 1
    19    7    8 am
    20    7   49 1
    21    8    9 2
    22    8   10 1
    23   10   14 2
    24   10   11 1
    25   11   12 2
    26   11   50 1
    27   12   13 1
    28   13   14 1
    29   13   16 1
    30   14   15 1
    31   15   51 1
    32   15   52 1
    33   16   21 ar
    34   16   17 ar
    35   17   18 ar
    36   17   53 1
    37   18   19 ar
    38   18   54 1
    39   19   20 ar
    40   19   22 1
    41   20   21 ar
    42   20   55 1
    43   21   56 1
    44   23   24 1
    45   23   25 1
    46   23   26 1
    47   27   57 1
    48   28   29 2
    49   28   30 1
    50   30   35 ar
    51   30   31 ar
    52   31   32 ar
    53   31   58 1
    54   32   33 ar
    55   32   59 1
    56   33   38 1
    57   33   34 ar
    58   34   35 ar
    59   34   36 1
    60   35   60 1
    61   36   37 2
    62   36   61 1
    63   37   38 1
    64   37   62 1
    65   38   39 1
@<TRIPOS>MOLECULE
CHEMBL465919__1
   62    65     0     0     0
SMALL
USER_CHARGES

@<TRIPOS>ATOM
      1 C1         -0.5686    1.0141   -0.0310 C.3       1 <0>        -0.1859
      2 C2          0.0051   -0.3992   -0.1509 C.3       1 <0>         0.0786
      3 N1          0.8056   -0.7037    1.0376 N.am      1 <0>        -0.6043
      4 C3          0.1466   -1.1237    2.2768 C.3       1 <0>         0.0906
      5 C4          0.0117   -2.6477    2.2915 C.3       1 <0>         0.0665
      6 C5         -0.7862   -3.0772    3.5243 C.3       1 <0>         0.0958
      7 N2         -0.9153   -4.5364    3.5384 N.am      1 <0>        -0.7287
      8 C6         -1.5839   -5.1441    4.5385 C.2       1 <0>         0.6117
      9 O1         -2.0803   -4.4807    5.4297 O.2       1 <0>        -0.5639
     10 C7         -1.7133   -6.6060    4.5526 C.2       1 <0>        -0.3690
     11 C8         -1.1887   -7.5069    3.5958 C.2       1 <0>         0.1254
     12 N3         -1.5123   -8.7172    3.9548 N.2       1 <0>        -0.2927
     13 N4         -2.2505   -8.6642    5.1420 N.pl3     1 <0>        -0.3497
     14 C9         -2.3708   -7.3707    5.5137 C.2       1 <0>         0.4457
     15 N5         -3.0242   -6.8964    6.6329 N.pl3     1 <0>        -0.8253
     16 C10        -2.7726   -9.7673    5.8323 C.ar      1 <0>         0.1461
     17 C11        -2.8302   -9.7554    7.2194 C.ar      1 <0>        -0.1195
     18 C12        -3.3447  -10.8429    7.8976 C.ar      1 <0>        -0.1250
     19 C13        -3.8031  -11.9447    7.1950 C.ar      1 <0>         0.0990
     20 C14        -3.7460  -11.9586    5.8114 C.ar      1 <0>        -0.1278
     21 C15        -3.2379  -10.8705    5.1294 C.ar      1 <0>        -0.0778
     22 F1         -4.3061  -13.0076    7.8601 F         1 <0>        -0.1318
     23 C16        -0.7168   -3.1074    1.0270 C.3       1 <0>         0.4706
     24 F2          0.0128   -2.7147   -0.1003 F         1 <0>        -0.1602
     25 F3         -0.8401   -4.5009    1.0404 F         1 <0>        -0.1712
     26 F4         -1.9890   -2.5270    0.9846 F         1 <0>        -0.1694
     27 O2          1.3112   -3.2405    2.3348 O.3       1 <0>        -0.5235
     28 C17         2.1484   -0.5975    0.9911 C.2       1 <0>         0.5793
     29 O3          2.8153   -0.8887    1.9650 O.2       1 <0>        -0.5299
     30 C18         2.8095   -0.1275   -0.2427 C.ar      1 <0>        -0.1647
     31 C19         2.2086    0.8708   -1.0226 C.ar      1 <0>        -0.0898
     32 C20         2.8064    1.3152   -2.1642 C.ar      1 <0>        -0.1362
     33 C21         4.0273    0.7802   -2.5713 C.ar      1 <0>         0.1159
     34 C22         4.6414   -0.2230   -1.7960 C.ar      1 <0>        -0.1219
     35 C23         4.0311   -0.6715   -0.6273 C.ar      1 <0>        -0.0003
     36 C24         5.8879   -0.5632   -2.4882 C.2       1 <0>        -0.1929
     37 C25         5.9513    0.2119   -3.5819 C.2       1 <0>         0.0476
     38 N6          4.8484    1.0197   -3.6465 N.pl3     1 <0>        -0.5924
     39 H1          4.6721    1.6657   -4.3483 H         1 <0>         0.4177
     40 H2          0.1716    1.6689    0.4289 H         1 <0>         0.0679
     41 H3         -0.8196    1.3897   -1.0230 H         1 <0>         0.0739
     42 H4         -1.4665    0.9906    0.5865 H         1 <0>         0.0644
     43 H5         -0.8111   -1.1169   -0.2329 H         1 <0>         0.0880
     44 H6          0.6345   -0.4617   -1.0387 H         1 <0>         0.1003
     45 H7          0.7421   -0.8034    3.1317 H         1 <0>         0.1154
     46 H8         -0.8433   -0.6708    2.3334 H         1 <0>         0.1046
     47 H9         -0.2672   -2.7496    4.4252 H         1 <0>         0.0967
     48 H10        -1.7774   -2.6250    3.4913 H         1 <0>         0.0917
     49 H11        -0.5197   -5.0652    2.8280 H         1 <0>         0.4081
     50 H12        -0.6186   -7.2378    2.7188 H         1 <0>         0.1938
     51 H13        -3.0550   -5.9429    6.8089 H         1 <0>         0.4330
     52 H14        -3.4525   -7.5164    7.2436 H         1 <0>         0.4032
     53 H15        -2.4725   -8.8965    7.7678 H         1 <0>         0.1400
     54 H16        -3.3893  -10.8342    8.9767 H         1 <0>         0.1492
     55 H17        -4.1033  -12.8190    5.2652 H         1 <0>         0.1489
     56 H18        -3.1983  -10.8795    4.0501 H         1 <0>         0.1483
     57 H19         1.8309   -2.9926    3.1116 H         1 <0>         0.4043
     58 H20         1.2624    1.2915   -0.7160 H         1 <0>         0.1491
     59 H21         2.3321    2.0845   -2.7556 H         1 <0>         0.1251
     60 H22         4.4997   -1.4375   -0.0272 H         1 <0>         0.1330
     61 H23         6.6165   -1.2971   -2.1771 H         1 <0>         0.1506
     62 H24         6.7538    0.1997   -4.3045 H         1 <0>         0.1736
@<TRIPOS>BOND
     1    1    2 1
     2    1   40 1
     3    1   41 1
     4    1   42 1
     5    2    3 1
     6    2   43 1
     7    2   44 1
     8    3    4 1
     9    3   28 am
    10    4    5 1
    11    4   45 1
    12    4   46 1
    13    5    6 1
    14    5   23 1
    15    5   27 1
    16    6    7 1
    17    6   47 1
    18    6   48 1
    19    7    8 am
    20    7   49 1
    21    8    9 2
    22    8   10 1
    23   10   14 2
    24   10   11 1
    25   11   12 2
    26   11   50 1
    27   12   13 1
    28   13   14 1
    29   13   16 1
    30   14   15 1
    31   15   51 1
    32   15   52 1
    33   16   21 ar
    34   16   17 ar
    35   17   18 ar
    36   17   53 1
    37   18   19 ar
    38   18   54 1
    39   19   20 ar
    40   19   22 1
    41   20   21 ar
    42   20   55 1
    43   21   56 1
    44   23   24 1
    45   23   25 1
    46   23   26 1
    47   27   57 1
    48   28   29 2
    49   28   30 1
    50   30   35 ar
    51   30   31 ar
    52   31   32 ar
    53   31   58 1
    54   32   33 ar
    55   32   59 1
    56   33   38 1
    57   33   34 ar
    58   34   35 ar
    59   34   36 1
    60   35   60 1
    61   36   37 2
    62   36   61 1
    63   37   38 1
    64   37   62 1
    65   38   39 1
@<TRIPOS>MOLECULE
CHEMBL195451
   55    59     0     0     0
SMALL
USER_CHARGES

@<TRIPOS>ATOM
      1 C1         -0.0187    1.5269    0.0104 C.3       1 <0>        -0.1801
      2 C2          0.0021   -0.0041    0.0020 C.3       1 <0>         0.0997
      3 H1          0.5292   -0.3109   -0.9256 H         1 <0>         0.0916
      4 C3         -1.4221   -0.5456   -0.0882 C.3       1 <0>        -0.1815
      5 C4         -2.0490   -0.6125    1.3060 C.3       1 <0>         0.0835
      6 H2         -2.1593    0.3880    1.7174 H         1 <0>         0.0638
      7 O1         -1.1915   -1.3949    2.1411 O.3       1 <0>        -0.3780
      8 C5          0.1047   -0.8206    2.3358 C.3       1 <0>         0.3157
      9 O2          0.7234   -0.5150    1.0982 O.3       1 <0>        -0.3802
     10 C6         -0.0282    0.4391    3.1939 C.3       1 <0>        -0.1670
     11 C7          1.3278    1.0382    3.5505 C.3       1 <0>        -0.1077
     12 C8          2.1886    0.0310    4.3265 C.3       1 <0>        -0.0908
     13 C9          2.2648   -1.2202    3.4647 C.2       1 <0>        -0.0466
     14 C10         3.4636   -1.6701    3.1083 C.2       1 <0>        -0.1127
     15 C11         3.5257   -2.8818    2.2772 C.2       1 <0>         0.1215
     16 C12         2.3827   -3.5973    1.9543 C.2       1 <0>        -0.2158
     17 C13         2.7727   -4.6790    1.1794 C.2       1 <0>         0.0677
     18 N1          4.0756   -4.6368    1.0259 N.2       1 <0>        -0.2909
     19 N2          4.5763   -3.5125    1.7033 N.pl3     1 <0>        -0.3143
     20 C14         5.9194   -3.1182    1.7670 C.ar      1 <0>         0.1484
     21 C15         6.2478   -1.7692    1.7863 C.ar      1 <0>        -0.1028
     22 C16         7.5721   -1.3827    1.8491 C.ar      1 <0>        -0.1309
     23 C17         8.5724   -2.3395    1.8926 C.ar      1 <0>         0.0972
     24 C18         8.2469   -3.6855    1.8734 C.ar      1 <0>        -0.1327
     25 C19         6.9235   -4.0761    1.8165 C.ar      1 <0>        -0.0818
     26 F1          9.8673   -1.9594    1.9535 F         1 <0>        -0.1337
     27 C20         1.0092   -3.1985    2.4084 C.3       1 <0>        -0.0204
     28 C21         0.9721   -1.8469    3.0656 C.3       1 <0>         0.0026
     29 C22         0.2343   -2.1216    4.3751 C.3       1 <0>        -0.1554
     30 C23        -3.4227   -1.2827    1.2175 C.3       1 <0>        -0.1449
     31 H3          1.0039    1.9042    0.0027 H         1 <0>         0.0649
     32 H4         -0.5459    1.8880   -0.8726 H         1 <0>         0.0678
     33 H5         -0.5289    1.8784    0.9072 H         1 <0>         0.0553
     34 H6         -2.0234    0.1092   -0.7242 H         1 <0>         0.0847
     35 H7         -1.4075   -1.5458   -0.5281 H         1 <0>         0.0809
     36 H8         -0.5964    1.1931    2.6322 H         1 <0>         0.0661
     37 H9         -0.5951    0.2434    4.1008 H         1 <0>         0.0849
     38 H10         1.8481    1.3264    2.6375 H         1 <0>         0.0719
     39 H11         1.1753    1.9255    4.1673 H         1 <0>         0.0698
     40 H12         3.1946    0.4403    4.4622 H         1 <0>         0.0772
     41 H13         1.7537   -0.1805    5.2973 H         1 <0>         0.0865
     42 H14         4.3610   -1.1562    3.4220 H         1 <0>         0.1323
     43 H15         2.1114   -5.4307    0.7747 H         1 <0>         0.1882
     44 H16         5.4681   -1.0227    1.7520 H         1 <0>         0.1428
     45 H17         7.8279   -0.3335    1.8638 H         1 <0>         0.1468
     46 H18         9.0284   -4.4302    1.9071 H         1 <0>         0.1466
     47 H19         6.6699   -5.1258    1.8060 H         1 <0>         0.1447
     48 H20         0.3408   -3.1825    1.5451 H         1 <0>         0.0831
     49 H21         0.6392   -3.9398    3.1193 H         1 <0>         0.0782
     50 H22        -0.7588   -2.5143    4.1570 H         1 <0>         0.0748
     51 H23         0.7931   -2.8515    4.9608 H         1 <0>         0.0627
     52 H24         0.1422   -1.1949    4.9415 H         1 <0>         0.0626
     53 H25        -3.3098   -2.2920    0.8216 H         1 <0>         0.0663
     54 H26        -3.8685   -1.3300    2.2111 H         1 <0>         0.0656
     55 H27        -4.0678   -0.7034    0.5570 H         1 <0>         0.0722
@<TRIPOS>BOND
     1    1    2 1
     2    1   31 1
     3    1   32 1
     4    1   33 1
     5    2    3 1
     6    2    9 1
     7    2    4 1
     8    4    5 1
     9    4   34 1
    10    4   35 1
    11    5    6 1
    12    5    7 1
    13    5   30 1
    14    7    8 1
    15    8   28 1
    16    8    9 1
    17    8   10 1
    18   10   11 1
    19   10   36 1
    20   10   37 1
    21   11   12 1
    22   11   38 1
    23   11   39 1
    24   12   13 1
    25   12   40 1
    26   12   41 1
    27   13   28 1
    28   13   14 2
    29   14   15 1
    30   14   42 1
    31   15   19 1
    32   15   16 2
    33   16   17 1
    34   16   27 1
    35   17   18 2
    36   17   43 1
    37   18   19 1
    38   19   20 1
    39   20   25 ar
    40   20   21 ar
    41   21   22 ar
    42   21   44 1
    43   22   23 ar
    44   22   45 1
    45   23   24 ar
    46   23   26 1
    47   24   25 ar
    48   24   46 1
    49   25   47 1
    50   27   28 1
    51   27   48 1
    52   27   49 1
    53   28   29 1
    54   29   50 1
    55   29   51 1
    56   29   52 1
    57   30   53 1
    58   30   54 1
    59   30   55 1
@<TRIPOS>MOLECULE
CHEMBL132363
   53    57     0     0     0
SMALL
USER_CHARGES

@<TRIPOS>ATOM
      1 C1         -0.0184    1.5028    0.0103 C.3       1 <0>        -0.1149
      2 C2          0.0021   -0.0041    0.0020 C.ar      1 <0>        -0.1232
      3 C3          0.0059   -0.6985   -1.1924 C.ar      1 <0>        -0.0791
      4 C4          0.0249   -2.0874   -1.1538 C.ar      1 <0>        -0.1698
      5 C5          0.0394   -2.7339    0.0678 C.ar      1 <0>         0.0940
      6 N1          0.0349   -2.0523    1.1954 N.ar      1 <0>        -0.4508
      7 C6          0.0232   -0.7206    1.2043 C.ar      1 <0>         0.1577
      8 C7          0.0261    0.0004    2.4833 C.2       1 <0>        -0.1226
      9 C8          0.0464   -0.6857    3.6442 C.2       1 <0>         0.1525
     10 C9          0.1116   -0.1359    4.9230 C.ar      1 <0>        -0.0392
     11 C10        -0.7918   -0.7163    5.8463 C.ar      1 <0>        -0.0889
     12 C11        -1.1879   -0.0207    6.9669 C.ar      1 <0>        -0.0551
     13 C12        -0.6820    1.2043    7.2870 C.ar      1 <0>        -0.1660
     14 C13         0.4271    1.6820    6.5661 C.ar      1 <0>         0.2250
     15 C14         0.9014    0.9718    5.4092 C.ar      1 <0>        -0.0947
     16 C15         2.1760    1.3775    4.8256 C.2       1 <0>        -0.0606
     17 C16         2.7694    2.4901    5.2246 C.2       1 <0>        -0.1737
     18 C17         2.2494    3.3517    6.2676 C.3       1 <0>         0.2283
     19 N2          1.0390    2.8868    6.8122 N.pl3     1 <0>        -0.7079
     20 C18         2.1123    4.7923    5.7487 C.3       1 <0>        -0.1576
     21 C19         3.3298    3.4727    7.4209 C.3       1 <0>        -0.1728
     22 C20         2.8605    0.5015    3.7097 C.3       1 <0>        -0.1082
     23 C21        -1.3174   -2.1111    5.5098 C.ar      1 <0>        -0.1162
     24 C22        -2.2441   -2.6719    6.3541 C.ar      1 <0>        -0.1047
     25 C23        -2.6533   -3.9974    6.0439 C.ar      1 <0>         0.0626
     26 C24        -2.1313   -4.6455    4.8754 C.ar      1 <0>        -0.1161
     27 C25        -1.2273   -4.0125    4.0814 C.ar      1 <0>        -0.1195
     28 C26        -0.7467   -2.7356    4.3425 C.ar      1 <0>         0.1461
     29 O1          0.0642   -2.0597    3.6042 O.3       1 <0>        -0.1978
     30 F1         -3.5497   -4.5864    6.7851 F         1 <0>        -0.1231
     31 H1          1.0042    1.8801    0.0026 H         1 <0>         0.0754
     32 H2         -0.5455    1.8639   -0.8728 H         1 <0>         0.0709
     33 H3         -0.5286    1.8543    0.9071 H         1 <0>         0.0711
     34 H4         -0.0059   -0.1731   -2.1359 H         1 <0>         0.1341
     35 H5          0.0281   -2.6573   -2.0712 H         1 <0>         0.1338
     36 H6          0.0542   -3.8133    0.0986 H         1 <0>         0.1552
     37 H7          0.0119    1.0803    2.4944 H         1 <0>         0.1558
     38 H8         -1.9821   -0.4119    7.5808 H         1 <0>         0.1266
     39 H9         -1.0235    1.7782    8.1314 H         1 <0>         0.1353
     40 H10         3.7732    2.7151    4.6868 H         1 <0>         0.1357
     41 H11         0.6038    3.4742    7.5606 H         1 <0>         0.4053
     42 H12         1.4294    4.8091    4.8993 H         1 <0>         0.0581
     43 H13         1.7207    5.4287    6.5423 H         1 <0>         0.0609
     44 H14         3.0895    5.1606    5.4365 H         1 <0>         0.0715
     45 H15         4.2479    3.8982    7.0156 H         1 <0>         0.0672
     46 H16         2.9474    4.1194    8.2107 H         1 <0>         0.0591
     47 H17         3.5373    2.4838    7.8297 H         1 <0>         0.0536
     48 H18         2.5180    0.8303    2.7286 H         1 <0>         0.0703
     49 H19         3.9429    0.6133    3.7730 H         1 <0>         0.0659
     50 H20         2.5943   -0.5454    3.8554 H         1 <0>         0.0664
     51 H21        -2.6072   -2.1917    7.1992 H         1 <0>         0.1405
     52 H22        -2.4624   -5.6485    4.5879 H         1 <0>         0.1471
     53 H23        -0.7949   -4.4684    3.2047 H         1 <0>         0.1363
@<TRIPOS>BOND
     1    1    2 1
     2    1   31 1
     3    1   32 1
     4    1   33 1
     5    2    7 ar
     6    2    3 ar
     7    3    4 ar
     8    3   34 1
     9    4    5 ar
    10    4   35 1
    11    5    6 ar
    12    5   36 1
    13    6    7 ar
    14    7    8 1
    15    8    9 2
    16    8   37 1
    17    9   29 1
    18    9   10 1
    19   10   15 ar
    20   10   11 ar
    21   11   12 ar
    22   11   23 1
    23   12   13 ar
    24   12   38 1
    25   13   14 ar
    26   13   39 1
    27   14   19 1
    28   14   15 ar
    29   15   16 1
    30   16   17 2
    31   16   22 1
    32   17   18 1
    33   17   40 1
    34   18   19 1
    35   18   20 1
    36   18   21 1
    37   19   41 1
    38   20   42 1
    39   20   43 1
    40   20   44 1
    41   21   45 1
    42   21   46 1
    43   21   47 1
    44   22   48 1
    45   22   49 1
    46   22   50 1
    47   23   28 ar
    48   23   24 ar
    49   24   25 ar
    50   24   51 1
    51   25   26 ar
    52   25   30 1
    53   26   27 ar
    54   26   52 1
    55   27   28 ar
    56   27   53 1
    57   28   29 1
@<TRIPOS>MOLECULE
CHEMBL82546
   57    61     0     0     0
SMALL
USER_CHARGES

@<TRIPOS>ATOM
      1 C1          0.1057    1.5974   -0.0371 C.3       1 <0>        -0.1489
      2 C2          0.0516    0.0688    0.0012 C.3       1 <0>        -0.0114
      3 C3         -1.4252   -0.3576   -0.0212 C.3       1 <0>        -0.0337
      4 C4         -1.9258   -1.1611    1.1573 C.2       1 <0>        -0.2167
      5 C5         -3.1805   -1.6741    1.4753 C.2       1 <0>         0.0697
      6 N1         -3.0977   -2.2987    2.6236 N.2       1 <0>        -0.2798
      7 N2         -1.7807   -2.2110    3.0904 N.pl3     1 <0>        -0.3215
      8 C6         -1.0547   -1.5049    2.1672 C.2       1 <0>         0.1189
      9 C7          0.3633   -1.1293    2.1298 C.2       1 <0>        -0.1257
     10 C8          0.8947   -0.4026    1.1664 C.2       1 <0>        -0.0486
     11 C9          2.3676   -0.0679    1.1706 C.3       1 <0>        -0.0838
     12 C10         2.9718   -0.5422   -0.1567 C.3       1 <0>        -0.1136
     13 C11         2.1704    0.0446   -1.3198 C.3       1 <0>        -0.1299
     14 C12         0.7259   -0.4565   -1.2667 C.3       1 <0>        -0.1095
     15 H1          0.7193   -1.5464   -1.2570 H         1 <0>         0.0818
     16 C13        -0.0344    0.0475   -2.4951 C.3       1 <0>         0.1136
     17 H2         -1.0893   -0.2101   -2.4004 H         1 <0>         0.1067
     18 C14         0.5394   -0.6063   -3.7537 C.3       1 <0>        -0.1146
     19 C15        -0.2866   -0.2059   -4.9489 C.ar      1 <0>        -0.0867
     20 C16        -1.3767   -0.9696   -5.3223 C.ar      1 <0>        -0.0901
     21 C17        -2.1352   -0.6031   -6.4179 C.ar      1 <0>        -0.1520
     22 C18        -1.8028    0.5296   -7.1417 C.ar      1 <0>         0.0938
     23 C19        -0.7108    1.2937   -6.7667 C.ar      1 <0>        -0.1521
     24 C20         0.0431    0.9281   -5.6676 C.ar      1 <0>        -0.0751
     25 F1         -2.5433    0.8886   -8.2131 F         1 <0>        -0.1407
     26 O1          0.1026    1.4667   -2.5909 O.3       1 <0>        -0.5469
     27 C21        -1.2918   -2.7497    4.2880 C.ar      1 <0>         0.1482
     28 C22         0.0037   -3.2458    4.3495 C.ar      1 <0>        -0.1050
     29 C23         0.4837   -3.7759    5.5309 C.ar      1 <0>        -0.1304
     30 C24        -0.3260   -3.8129    6.6538 C.ar      1 <0>         0.0973
     31 C25        -1.6185   -3.3191    6.5944 C.ar      1 <0>        -0.1317
     32 C26        -2.1003   -2.7830    5.4165 C.ar      1 <0>        -0.0830
     33 F2          0.1455   -4.3319    7.8086 F         1 <0>        -0.1333
     34 H3          1.1158    1.9190   -0.2909 H         1 <0>         0.0605
     35 H4         -0.5927    1.9669   -0.7881 H         1 <0>         0.0892
     36 H5         -0.1676    1.9952    0.9402 H         1 <0>         0.0455
     37 H6         -2.0337    0.5436   -0.0959 H         1 <0>         0.0767
     38 H7         -1.5910   -0.9461   -0.9235 H         1 <0>         0.0726
     39 H8         -4.0730   -1.5736    0.8754 H         1 <0>         0.1902
     40 H9          0.9991   -1.4465    2.9431 H         1 <0>         0.1174
     41 H10         2.4994    1.0096    1.2702 H         1 <0>         0.0835
     42 H11         2.8579   -0.5770    2.0003 H         1 <0>         0.0745
     43 H12         4.0074   -0.2089   -0.2243 H         1 <0>         0.0708
     44 H13         2.9365   -1.6306   -0.2037 H         1 <0>         0.0654
     45 H14         2.1785    1.1324   -1.2521 H         1 <0>         0.0760
     46 H15         2.6247   -0.2608   -2.2624 H         1 <0>         0.0697
     47 H16         1.5687   -0.2777   -3.8968 H         1 <0>         0.0802
     48 H17         0.5161   -1.6904   -3.6428 H         1 <0>         0.0837
     49 H18        -1.6356   -1.8532   -4.7579 H         1 <0>         0.1306
     50 H19        -2.9865   -1.2001   -6.7097 H         1 <0>         0.1344
     51 H20        -0.4504    2.1772   -7.3307 H         1 <0>         0.1342
     52 H21         0.8923    1.5265   -5.3723 H         1 <0>         0.1299
     53 H22         1.0171    1.7686   -2.6776 H         1 <0>         0.3690
     54 H23         0.6353   -3.2174    3.4739 H         1 <0>         0.1420
     55 H24         1.4911   -4.1621    5.5790 H         1 <0>         0.1470
     56 H25        -2.2485   -3.3492    7.4711 H         1 <0>         0.1470
     57 H26        -3.1067   -2.3935    5.3719 H         1 <0>         0.1445
@<TRIPOS>BOND
     1    1    2 1
     2    1   34 1
     3    1   35 1
     4    1   36 1
     5    2   10 1
     6    2   14 1
     7    2    3 1
     8    3    4 1
     9    3   37 1
    10    3   38 1
    11    4    8 2
    12    4    5 1
    13    5    6 2
    14    5   39 1
    15    6    7 1
    16    7    8 1
    17    7   27 1
    18    8    9 1
    19    9   10 2
    20    9   40 1
    21   10   11 1
    22   11   12 1
    23   11   41 1
    24   11   42 1
    25   12   13 1
    26   12   43 1
    27   12   44 1
    28   13   14 1
    29   13   45 1
    30   13   46 1
    31   14   15 1
    32   14   16 1
    33   16   17 1
    34   16   18 1
    35   16   26 1
    36   18   19 1
    37   18   47 1
    38   18   48 1
    39   19   24 ar
    40   19   20 ar
    41   20   21 ar
    42   20   49 1
    43   21   22 ar
    44   21   50 1
    45   22   23 ar
    46   22   25 1
    47   23   24 ar
    48   23   51 1
    49   24   52 1
    50   26   53 1
    51   27   32 ar
    52   27   28 ar
    53   28   29 ar
    54   28   54 1
    55   29   30 ar
    56   29   55 1
    57   30   31 ar
    58   30   33 1
    59   31   32 ar
    60   31   56 1
    61   32   57 1
@<TRIPOS>MOLECULE
CHEMBL247604
   63    67     0     0     0
SMALL
USER_CHARGES

@<TRIPOS>ATOM
      1 C1         -0.3122    0.7332    0.0682 C.ar      1 <0>        -0.1223
      2 C2          0.7374    1.6146    0.2480 C.ar      1 <0>        -0.1163
      3 C3          2.0402    1.1533    0.2182 C.ar      1 <0>        -0.1160
      4 C4          2.2933   -0.1895    0.0091 C.ar      1 <0>        -0.0795
      5 C5          1.2436   -1.0711   -0.1697 C.ar      1 <0>        -0.1171
      6 C6         -0.0591   -0.6095   -0.1413 C.ar      1 <0>        -0.1198
      7 C7          3.7135   -0.6923   -0.0243 C.3       1 <0>        -0.0744
      8 C8          4.2400   -0.8288    1.4058 C.3       1 <0>        -0.0345
      9 C9          3.3329   -1.7885    2.1551 C.3       1 <0>        -0.1018
     10 C10         2.0630   -1.0985    2.6510 C.3       1 <0>        -0.1902
     11 C11         2.4908    0.0547    3.5378 C.2       1 <0>         0.3909
     12 O1          2.0184    0.2209    4.6429 O.2       1 <0>        -0.4589
     13 C12         3.5072    0.9582    2.9875 C.2       1 <0>        -0.2266
     14 C13         4.3143    0.5409    2.0098 C.2       1 <0>        -0.0232
     15 C14         5.3274    1.5278    1.4572 C.3       1 <0>        -0.1118
     16 C15         6.7044    0.8560    1.4311 C.3       1 <0>         0.1213
     17 N1          6.5727   -0.4507    0.7721 N.pl3     1 <0>        -0.9986
     18 C16         5.6472   -1.4381    1.3398 C.3       1 <0>         0.1290
     19 S1          7.4520   -0.8025   -0.5864 S.o2      1 <0>         2.6914
     20 O2          6.7408   -1.8196   -1.2784 O.2       1 <0>        -0.9546
     21 O3          7.7826    0.4410   -1.1894 O.2       1 <0>        -0.9566
     22 C17         8.9691   -1.5227   -0.0530 C.ar      1 <0>        -0.7360
     23 C18        10.0627   -0.7163    0.2041 C.ar      1 <0>         0.0299
     24 C19        11.2533   -1.2775    0.6223 C.ar      1 <0>        -0.2190
     25 C20        11.3514   -2.6536    0.7846 C.ar      1 <0>         0.2732
     26 C21        10.2509   -3.4607    0.5255 C.ar      1 <0>        -0.2185
     27 C22         9.0617   -2.8924    0.1130 C.ar      1 <0>         0.0302
     28 N2         12.5542   -3.2245    1.2070 N.pl3     1 <0>        -0.6233
     29 C23        12.7202   -4.6855    1.2641 C.3       1 <0>         0.0800
     30 C24        14.0130   -5.0544    0.5275 C.3       1 <0>         0.0454
     31 O4         15.0907   -4.2721    1.0476 O.3       1 <0>        -0.3769
     32 C25        14.9382   -2.8638    0.8541 C.3       1 <0>         0.0450
     33 C26        13.6947   -2.3828    1.6021 C.3       1 <0>         0.0794
     34 H1         -1.3302    1.0929    0.0960 H         1 <0>         0.1215
     35 H2          0.5397    2.6637    0.4114 H         1 <0>         0.1216
     36 H3          2.8603    1.8420    0.3580 H         1 <0>         0.1213
     37 H4          1.4414   -2.1201   -0.3334 H         1 <0>         0.1252
     38 H5         -0.8791   -1.2982   -0.2815 H         1 <0>         0.1235
     39 H6          3.7434   -1.6642   -0.5168 H         1 <0>         0.0905
     40 H7          4.3359    0.0132   -0.5748 H         1 <0>         0.0762
     41 H8          3.0560   -2.6072    1.4909 H         1 <0>         0.0860
     42 H9          3.8737   -2.1941    3.0101 H         1 <0>         0.0716
     43 H10         1.4908   -0.7216    1.8032 H         1 <0>         0.1253
     44 H11         1.4586   -1.8019    3.2237 H         1 <0>         0.0894
     45 H12         3.6114    1.9580    3.3822 H         1 <0>         0.1349
     46 H13         5.0422    1.8166    0.4456 H         1 <0>         0.0915
     47 H14         5.3634    2.4107    2.0954 H         1 <0>         0.0934
     48 H15         7.4049    1.4782    0.8742 H         1 <0>         0.1010
     49 H16         7.0637    0.7174    2.4508 H         1 <0>         0.0786
     50 H17         5.9789   -1.6985    2.3449 H         1 <0>         0.0790
     51 H18         5.6279   -2.3331    0.7180 H         1 <0>         0.1048
     52 H19         9.9858    0.3535    0.0773 H         1 <0>         0.1383
     53 H20        12.1071   -0.6472    0.8225 H         1 <0>         0.1326
     54 H21        10.3240   -4.5309    0.6504 H         1 <0>         0.1325
     55 H22         8.2044   -3.5188   -0.0844 H         1 <0>         0.1388
     56 H23        12.7854   -5.0072    2.3036 H         1 <0>         0.0776
     57 H24        11.8717   -5.1706    0.7817 H         1 <0>         0.0965
     58 H25        14.2271   -6.1129    0.6754 H         1 <0>         0.1093
     59 H26        13.8962   -4.8511   -0.5370 H         1 <0>         0.0579
     60 H27        15.8178   -2.3464    1.2370 H         1 <0>         0.1094
     61 H28        14.8247   -2.6526   -0.2092 H         1 <0>         0.0576
     62 H29        13.4911   -1.3437    1.3434 H         1 <0>         0.0969
     63 H30        13.8596   -2.4687    2.6761 H         1 <0>         0.0777
@<TRIPOS>BOND
     1    1    6 ar
     2    1    2 ar
     3    1   34 1
     4    2    3 ar
     5    2   35 1
     6    3    4 ar
     7    3   36 1
     8    4    5 ar
     9    4    7 1
    10    5    6 ar
    11    5   37 1
    12    6   38 1
    13    7    8 1
    14    7   39 1
    15    7   40 1
    16    8   14 1
    17    8   18 1
    18    8    9 1
    19    9   10 1
    20    9   41 1
    21    9   42 1
    22   10   11 1
    23   10   43 1
    24   10   44 1
    25   11   12 2
    26   11   13 1
    27   13   14 2
    28   13   45 1
    29   14   15 1
    30   15   16 1
    31   15   46 1
    32   15   47 1
    33   16   17 1
    34   16   48 1
    35   16   49 1
    36   17   18 1
    37   17   19 1
    38   18   50 1
    39   18   51 1
    40   19   20 2
    41   19   21 2
    42   19   22 1
    43   22   27 ar
    44   22   23 ar
    45   23   24 ar
    46   23   52 1
    47   24   25 ar
    48   24   53 1
    49   25   26 ar
    50   25   28 1
    51   26   27 ar
    52   26   54 1
    53   27   55 1
    54   28   33 1
    55   28   29 1
    56   29   30 1
    57   29   56 1
    58   29   57 1
    59   30   31 1
    60   30   58 1
    61   30   59 1
    62   31   32 1
    63   32   33 1
    64   32   60 1
    65   32   61 1
    66   33   62 1
    67   33   63 1
@<TRIPOS>MOLECULE
CHEMBL247604__1
   63    67     0     0     0
SMALL
USER_CHARGES

@<TRIPOS>ATOM
      1 C1         -0.0925    1.2612    0.0400 C.ar      1 <0>        -0.1220
      2 C2          1.0580    1.9684   -0.2552 C.ar      1 <0>        -0.1204
      3 C3          2.2802    1.3229   -0.2748 C.ar      1 <0>        -0.1172
      4 C4          2.3520   -0.0297    0.0012 C.ar      1 <0>        -0.0753
      5 C5          1.2016   -0.7367    0.2972 C.ar      1 <0>        -0.1128
      6 C6         -0.0208   -0.0915    0.3154 C.ar      1 <0>        -0.1164
      7 C7          3.6843   -0.7337   -0.0211 C.3       1 <0>        -0.0789
      8 C8          4.2048   -0.8858    1.4095 C.3       1 <0>        -0.0385
      9 C9          4.3560    0.5012    2.0086 C.3       1 <0>        -0.1027
     10 C10         3.0226    1.0492    2.5146 C.3       1 <0>        -0.1914
     11 C11         2.4881    0.0666    3.5384 C.2       1 <0>         0.3904
     12 O1          2.1035    0.4274    4.6310 O.2       1 <0>        -0.4582
     13 C12         2.4609   -1.3440    3.1362 C.2       1 <0>        -0.2260
     14 C13         3.2604   -1.7764    2.1589 C.2       1 <0>        -0.0215
     15 C14         3.1685   -3.2395    1.7630 C.3       1 <0>        -0.1149
     16 C15         4.5823   -3.8297    1.7307 C.3       1 <0>         0.1214
     17 N1          5.4389   -2.9434    0.9308 N.pl3     1 <0>        -0.9973
     18 C16         5.5899   -1.5438    1.3457 C.3       1 <0>         0.1294
     19 S1          6.2198   -3.5134   -0.4137 S.o2      1 <0>         2.6909
     20 O2          7.3407   -2.6653   -0.6224 O.2       1 <0>        -0.9564
     21 O3          6.3486   -4.9182   -0.2435 O.2       1 <0>        -0.9566
     22 C17         5.1412   -3.2691   -1.7854 C.ar      1 <0>        -0.7363
     23 C18         4.2376   -4.2552   -2.1367 C.ar      1 <0>         0.0310
     24 C19         3.3908   -4.0671   -3.2112 C.ar      1 <0>        -0.2185
     25 C20         3.4473   -2.8855   -3.9395 C.ar      1 <0>         0.2760
     26 C21         4.3562   -1.8970   -3.5839 C.ar      1 <0>        -0.2156
     27 C22         5.1962   -2.0894   -2.5048 C.ar      1 <0>         0.0320
     28 N2          2.5926   -2.6921   -5.0272 N.pl3     1 <0>        -0.6218
     29 C23         2.7223   -1.5081   -5.8912 C.3       1 <0>         0.0810
     30 C24         2.7708   -1.9770   -7.3499 C.3       1 <0>         0.0454
     31 O4          1.6539   -2.8314   -7.6071 O.3       1 <0>        -0.3768
     32 C25         1.6426   -4.0303   -6.8285 C.3       1 <0>         0.0451
     33 C26         1.5399   -3.6694   -5.3465 C.3       1 <0>         0.0802
     34 H1         -1.0468    1.7665    0.0597 H         1 <0>         0.1209
     35 H2          1.0020    3.0252   -0.4708 H         1 <0>         0.1229
     36 H3          3.1790    1.8752   -0.5060 H         1 <0>         0.1237
     37 H4          1.2576   -1.7936    0.5125 H         1 <0>         0.1195
     38 H5         -0.9197   -0.6439    0.5463 H         1 <0>         0.1204
     39 H6          3.5670   -1.7192   -0.4718 H         1 <0>         0.0861
     40 H7          4.3944   -0.1490   -0.6059 H         1 <0>         0.0817
     41 H8          5.0591    0.4540    2.8402 H         1 <0>         0.0729
     42 H9          4.7516    1.1751    1.2487 H         1 <0>         0.0848
     43 H10         3.1748    2.0231    2.9799 H         1 <0>         0.0891
     44 H11         2.3205    1.1393    1.6857 H         1 <0>         0.1255
     45 H12         1.8029   -2.0364    3.6401 H         1 <0>         0.1344
     46 H13         2.5640   -3.7783    2.4926 H         1 <0>         0.0927
     47 H14         2.7147   -3.3232    0.7756 H         1 <0>         0.0884
     48 H15         4.9736   -3.8990    2.7457 H         1 <0>         0.0842
     49 H16         4.5553   -4.8204    1.2769 H         1 <0>         0.1012
     50 H17         6.2154   -1.0077    0.6319 H         1 <0>         0.1041
     51 H18         6.0532   -1.5141    2.3319 H         1 <0>         0.0848
     52 H19         4.1944   -5.1738   -1.5702 H         1 <0>         0.1374
     53 H20         2.6856   -4.8378   -3.4852 H         1 <0>         0.1311
     54 H21         4.4030   -0.9774   -4.1483 H         1 <0>         0.1310
     55 H22         5.9000   -1.3194   -2.2251 H         1 <0>         0.1370
     56 H23         1.8647   -0.8513   -5.7451 H         1 <0>         0.0769
     57 H24         3.6403   -0.9738   -5.6466 H         1 <0>         0.0961
     58 H25         2.7277   -1.1121   -8.0119 H         1 <0>         0.1088
     59 H26         3.6965   -2.5251   -7.5255 H         1 <0>         0.0578
     60 H27         0.7878   -4.6428   -7.1154 H         1 <0>         0.1089
     61 H28         2.5642   -4.5859   -7.0022 H         1 <0>         0.0574
     62 H29         1.6754   -4.5658   -4.7413 H         1 <0>         0.0965
     63 H30         0.5613   -3.2340   -5.1446 H         1 <0>         0.0770
@<TRIPOS>BOND
     1    1    6 ar
     2    1    2 ar
     3    1   34 1
     4    2    3 ar
     5    2   35 1
     6    3    4 ar
     7    3   36 1
     8    4    5 ar
     9    4    7 1
    10    5    6 ar
    11    5   37 1
    12    6   38 1
    13    7    8 1
    14    7   39 1
    15    7   40 1
    16    8   14 1
    17    8   18 1
    18    8    9 1
    19    9   10 1
    20    9   41 1
    21    9   42 1
    22   10   11 1
    23   10   43 1
    24   10   44 1
    25   11   12 2
    26   11   13 1
    27   13   14 2
    28   13   45 1
    29   14   15 1
    30   15   16 1
    31   15   46 1
    32   15   47 1
    33   16   17 1
    34   16   48 1
    35   16   49 1
    36   17   18 1
    37   17   19 1
    38   18   50 1
    39   18   51 1
    40   19   20 2
    41   19   21 2
    42   19   22 1
    43   22   27 ar
    44   22   23 ar
    45   23   24 ar
    46   23   52 1
    47   24   25 ar
    48   24   53 1
    49   25   26 ar
    50   25   28 1
    51   26   27 ar
    52   26   54 1
    53   27   55 1
    54   28   33 1
    55   28   29 1
    56   29   30 1
    57   29   56 1
    58   29   57 1
    59   30   31 1
    60   30   58 1
    61   30   59 1
    62   31   32 1
    63   32   33 1
    64   32   60 1
    65   32   61 1
    66   33   62 1
    67   33   63 1
@<TRIPOS>MOLECULE
CHEMBL1093772
   40    42     0     0     0
SMALL
USER_CHARGES

@<TRIPOS>ATOM
      1 C1         -0.0187    1.5258    0.0104 C.3       1 <0>        -0.1712
      2 C2          0.0021   -0.0041    0.0020 C.3       1 <0>         0.1338
      3 N1         -1.3723   -0.5112    0.0124 N.pl3     1 <0>        -0.3799
      4 C3         -2.1050   -0.7855    1.1324 C.ar      1 <0>         0.3469
      5 C4         -3.3612   -1.2464    0.6873 C.ar      1 <0>        -0.2373
      6 C5         -3.3165   -1.2241   -0.7713 C.2       1 <0>         0.1038
      7 N2         -2.1421   -0.7845   -1.1221 N.2       1 <0>        -0.2282
      8 C6         -4.3326   -1.6073    1.6258 C.ar      1 <0>         0.1440
      9 C7         -4.0082   -1.4926    2.9802 C.ar      1 <0>        -0.2371
     10 C8         -2.7369   -1.0258    3.3405 C.ar      1 <0>         0.2170
     11 N3         -1.8477   -0.6960    2.4338 N.ar      1 <0>        -0.4972
     12 C9         -4.9921   -1.8578    4.0180 C.2       1 <0>         0.5708
     13 O1         -6.0930   -2.2616    3.6967 O.2       1 <0>        -0.5100
     14 N4         -4.6701   -1.7439    5.3218 N.am      1 <0>        -0.7264
     15 C10        -5.6467   -2.1064    6.3518 C.3       1 <0>         0.1640
     16 C11        -5.0428   -1.8890    7.7153 C.ar      1 <0>        -0.1094
     17 C12        -4.3478   -2.9115    8.3343 C.ar      1 <0>        -0.0534
     18 C13        -3.7942   -2.7128    9.5849 C.ar      1 <0>        -0.1107
     19 C14        -3.9352   -1.4902   10.2173 C.ar      1 <0>         0.0149
     20 C15        -4.6303   -0.4675    9.5973 C.ar      1 <0>        -0.1790
     21 C16        -5.1792   -0.6657    8.3442 C.ar      1 <0>        -0.0409
     22 C17        -4.7844    0.8644   10.2855 C.3       1 <0>         0.5090
     23 F1         -5.5195    1.7294    9.4679 F         1 <0>        -0.1731
     24 F2         -5.4561    0.6869   11.4997 F         1 <0>        -0.1682
     25 F3         -3.5205    1.4131   10.5276 F         1 <0>        -0.1686
     26 Cl1        -3.2406   -1.2401   11.7885 Cl        1 <0>        -0.0364
     27 Cl2        -5.8930   -2.1794    1.1243 Cl        1 <0>         0.0040
     28 H1          1.0039    1.9031    0.0027 H         1 <0>         0.0817
     29 H2         -0.5459    1.8868   -0.8726 H         1 <0>         0.0647
     30 H3         -0.5289    1.8773    0.9072 H         1 <0>         0.0623
     31 H4          0.5123   -0.3556   -0.8948 H         1 <0>         0.1000
     32 H5          0.5293   -0.3651    0.8851 H         1 <0>         0.1006
     33 H6         -4.1141   -1.5155   -1.4385 H         1 <0>         0.2085
     34 H7         -2.4836   -0.9362    4.3865 H         1 <0>         0.1746
     35 H8         -3.7918   -1.4218    5.5781 H         1 <0>         0.4002
     36 H9         -6.5355   -1.4847    6.2448 H         1 <0>         0.0874
     37 H10        -5.9213   -3.1552    6.2391 H         1 <0>         0.0890
     38 H11        -4.2378   -3.8657    7.8406 H         1 <0>         0.1476
     39 H12        -3.2520   -3.5118   10.0686 H         1 <0>         0.1507
     40 H13        -5.7184    0.1340    7.8582 H         1 <0>         0.1517
@<TRIPOS>BOND
     1    1    2 1
     2    1   28 1
     3    1   29 1
     4    1   30 1
     5    2    3 1
     6    2   31 1
     7    2   32 1
     8    3    7 1
     9    3    4 1
    10    4   11 ar
    11    4    5 ar
    12    5    6 1
    13    5    8 ar
    14    6    7 2
    15    6   33 1
    16    8    9 ar
    17    8   27 1
    18    9   10 ar
    19    9   12 1
    20   10   11 ar
    21   10   34 1
    22   12   13 2
    23   12   14 am
    24   14   15 1
    25   14   35 1
    26   15   16 1
    27   15   36 1
    28   15   37 1
    29   16   21 ar
    30   16   17 ar
    31   17   18 ar
    32   17   38 1
    33   18   19 ar
    34   18   39 1
    35   19   20 ar
    36   19   26 1
    37   20   21 ar
    38   20   22 1
    39   21   40 1
    40   22   23 1
    41   22   24 1
    42   22   25 1
@<TRIPOS>MOLECULE
CHEMBL1089743
   51    54     0     0     0
SMALL
USER_CHARGES

@<TRIPOS>ATOM
      1 C1         -1.6690    1.8229   -0.4719 C.3       1 <0>        -0.0852
      2 C2         -1.4702    0.3315   -0.3857 C.2       1 <0>         0.1302
      3 C3         -1.1703   -0.5639   -1.4983 C.ar      1 <0>        -0.2336
      4 C4         -0.9837   -0.3808   -2.8721 C.ar      1 <0>         0.1429
      5 C5         -0.7027   -1.5069   -3.6499 C.ar      1 <0>        -0.2331
      6 C6         -0.6199   -2.7613   -3.0301 C.ar      1 <0>         0.2179
      7 N1         -0.8004   -2.8983   -1.7380 N.ar      1 <0>        -0.4983
      8 C7         -1.0701   -1.8598   -0.9522 C.ar      1 <0>         0.3459
      9 N2         -1.2956   -1.7349    0.3894 N.pl3     1 <0>        -0.3845
     10 N3         -1.5292   -0.3911    0.6959 N.2       1 <0>        -0.2345
     11 C8         -1.2882   -2.8358    1.3561 C.3       1 <0>         0.1080
     12 C9         -0.4964   -1.3773   -5.1056 C.2       1 <0>         0.5689
     13 O1         -0.5704   -0.2854   -5.6353 O.2       1 <0>        -0.5124
     14 N4         -0.2258   -2.4693   -5.8477 N.am      1 <0>        -0.7172
     15 C10        -0.0209   -2.3407   -7.2926 C.3       1 <0>         0.1566
     16 C11         0.1297   -3.7106   -7.9025 C.ar      1 <0>        -0.0974
     17 C12         1.3745   -4.1594   -8.2956 C.ar      1 <0>        -0.0977
     18 C13         1.5140   -5.4161   -8.8559 C.ar      1 <0>        -0.1164
     19 C14         0.4084   -6.2302   -9.0252 C.ar      1 <0>        -0.1086
     20 C15        -0.8406   -5.7918   -8.6353 C.ar      1 <0>        -0.1039
     21 C16        -0.9862   -4.5285   -8.0653 C.ar      1 <0>        -0.0313
     22 C17        -2.3260   -4.0538   -7.6389 C.ar      1 <0>        -0.0089
     23 C18        -3.0727   -4.7966   -6.7260 C.ar      1 <0>        -0.1442
     24 C19        -4.3187   -4.3531   -6.3309 C.ar      1 <0>        -0.0768
     25 C20        -4.8296   -3.1732   -6.8387 C.ar      1 <0>        -0.2058
     26 C21        -4.0927   -2.4279   -7.7486 C.ar      1 <0>         0.1339
     27 C22        -2.8384   -2.8624   -8.1454 C.ar      1 <0>        -0.1361
     28 O2         -4.5991   -1.2690   -8.2460 O.3       1 <0>        -0.3147
     29 C23        -5.8954   -0.8784   -7.7886 C.3       1 <0>         0.0274
     30 Cl1        -1.0981    1.1963   -3.5887 Cl        1 <0>         0.0040
     31 H1         -0.7105    2.3253   -0.3418 H         1 <0>         0.0916
     32 H2         -2.0838    2.0784   -1.4470 H         1 <0>         0.0880
     33 H3         -2.3565    2.1436    0.3108 H         1 <0>         0.0872
     34 H4         -0.4032   -3.6336   -3.6289 H         1 <0>         0.1743
     35 H5         -0.2808   -2.9654    1.7515 H         1 <0>         0.0766
     36 H6         -1.9725   -2.6065    2.1730 H         1 <0>         0.0931
     37 H7         -1.6060   -3.7544    0.8630 H         1 <0>         0.0942
     38 H8         -0.1667   -3.3405   -5.4251 H         1 <0>         0.3979
     39 H9         -0.8790   -1.8371   -7.7378 H         1 <0>         0.0907
     40 H10         0.8806   -1.7579   -7.4813 H         1 <0>         0.0777
     41 H11         2.2409   -3.5279   -8.1657 H         1 <0>         0.1284
     42 H12         2.4897   -5.7630   -9.1628 H         1 <0>         0.1265
     43 H13         0.5230   -7.2105   -9.4636 H         1 <0>         0.1269
     44 H14        -1.7031   -6.4280   -8.7682 H         1 <0>         0.1272
     45 H15        -2.6766   -5.7192   -6.3280 H         1 <0>         0.1255
     46 H16        -4.8961   -4.9297   -5.6234 H         1 <0>         0.1262
     47 H17        -5.8052   -2.8305   -6.5268 H         1 <0>         0.1274
     48 H18        -2.2616   -2.2809   -8.8494 H         1 <0>         0.1324
     49 H19        -6.1798    0.0613   -8.2621 H         1 <0>         0.1018
     50 H20        -6.6201   -1.6501   -8.0484 H         1 <0>         0.0557
     51 H21        -5.8751   -0.7486   -6.7066 H         1 <0>         0.0556
@<TRIPOS>BOND
     1    1    2 1
     2    1   31 1
     3    1   32 1
     4    1   33 1
     5    2   10 2
     6    2    3 1
     7    3    8 ar
     8    3    4 ar
     9    4    5 ar
    10    4   30 1
    11    5    6 ar
    12    5   12 1
    13    6    7 ar
    14    6   34 1
    15    7    8 ar
    16    8    9 1
    17    9   10 1
    18    9   11 1
    19   11   35 1
    20   11   36 1
    21   11   37 1
    22   12   13 2
    23   12   14 am
    24   14   15 1
    25   14   38 1
    26   15   16 1
    27   15   39 1
    28   15   40 1
    29   16   21 ar
    30   16   17 ar
    31   17   18 ar
    32   17   41 1
    33   18   19 ar
    34   18   42 1
    35   19   20 ar
    36   19   43 1
    37   20   21 ar
    38   20   44 1
    39   21   22 1
    40   22   27 ar
    41   22   23 ar
    42   23   24 ar
    43   23   45 1
    44   24   25 ar
    45   24   46 1
    46   25   26 ar
    47   25   47 1
    48   26   27 ar
    49   26   28 1
    50   27   48 1
    51   28   29 1
    52   29   49 1
    53   29   50 1
    54   29   51 1
@<TRIPOS>MOLECULE
CHEMBL64095
   56    60     0     0     0
SMALL
USER_CHARGES

@<TRIPOS>ATOM
      1 C1          2.9434    0.5794    0.1682 C.3       1 <0>         0.0221
      2 O1          2.5705   -0.7988    0.1077 O.3       1 <0>        -0.2996
      3 C2          1.2531   -1.0890    0.2694 C.ar      1 <0>         0.1443
      4 C3          0.3340   -0.0702    0.4765 C.ar      1 <0>        -0.2276
      5 C4         -1.0057   -0.3683    0.6428 C.ar      1 <0>        -0.0757
      6 C5         -1.4429   -1.6805    0.6169 C.ar      1 <0>        -0.1733
      7 C6         -0.5386   -2.7094    0.4179 C.ar      1 <0>         0.1460
      8 C7          0.8161   -2.4094    0.2228 C.ar      1 <0>        -0.0923
      9 C8          1.7527   -3.5315   -0.0170 C.ar      1 <0>        -0.1534
     10 C9          3.1298   -3.3601    0.0549 C.ar      1 <0>        -0.0345
     11 C10         3.9640   -4.4393   -0.1574 C.ar      1 <0>        -0.2585
     12 C11         3.4266   -5.6900   -0.4390 C.ar      1 <0>         0.2944
     13 C12         2.0486   -5.8599   -0.5186 C.ar      1 <0>        -0.1596
     14 C13         1.2127   -4.7846   -0.3182 C.ar      1 <0>        -0.0774
     15 C14        -0.2810   -4.9288   -0.4475 C.3       1 <0>         0.1906
     16 O2         -0.9459   -4.0035    0.4215 O.3       1 <0>        -0.3082
     17 C15        -0.6805   -6.3322   -0.0705 C.ar      1 <0>        -0.0972
     18 C16        -0.9003   -6.6543    1.2561 C.ar      1 <0>        -0.0474
     19 C17        -1.2670   -7.9397    1.6044 C.ar      1 <0>        -0.1933
     20 C18        -1.4146   -8.9081    0.6216 C.ar      1 <0>         0.1202
     21 C19        -1.1934   -8.5822   -0.7089 C.ar      1 <0>        -0.1426
     22 C20        -0.8320   -7.2939   -1.0523 C.ar      1 <0>        -0.0651
     23 O3         -1.7748  -10.1735    0.9616 O.3       1 <0>        -0.2629
     24 C21        -1.9881  -10.4447    2.2759 C.ar      1 <0>         0.0883
     25 C22        -3.2545  -10.2888    2.8211 C.ar      1 <0>        -0.1272
     26 C23        -3.4687  -10.5652    4.1575 C.ar      1 <0>        -0.1088
     27 C24        -2.4223  -10.9963    4.9519 C.ar      1 <0>        -0.1210
     28 C25        -1.1592  -11.1520    4.4112 C.ar      1 <0>        -0.1062
     29 C26        -0.9411  -10.8834    3.0739 C.ar      1 <0>        -0.1244
     30 N1          4.2745   -6.7809   -0.6436 N.2       1 <0>        -1.0933
     31 S1          5.9159   -6.5827   -0.5503 S.o2      1 <0>         2.5248
     32 O4          6.2355   -5.6982   -1.6156 O.2       1 <0>        -1.0288
     33 O5          6.1600   -6.2096    0.7989 O.2       1 <0>        -1.0287
     34 C27         6.6036   -8.2291   -0.8775 C.3       1 <0>        -0.6375
     35 H1          4.0199    0.6711    0.0241 H         1 <0>         0.0971
     36 H2          2.4236    1.1311   -0.6152 H         1 <0>         0.0524
     37 H3          2.6710    0.9871    1.1416 H         1 <0>         0.0523
     38 H4          0.6656    0.9572    0.5075 H         1 <0>         0.1247
     39 H5         -1.7170    0.4301    0.7945 H         1 <0>         0.1244
     40 H6         -2.4911   -1.9024    0.7525 H         1 <0>         0.1268
     41 H7          3.5452   -2.3878    0.2752 H         1 <0>         0.1283
     42 H8          5.0351   -4.3118   -0.1041 H         1 <0>         0.1040
     43 H9          1.6351   -6.8334   -0.7370 H         1 <0>         0.1188
     44 H10        -0.5732   -4.7395   -1.4804 H         1 <0>         0.0829
     45 H11        -0.7850   -5.9002    2.0207 H         1 <0>         0.1296
     46 H12        -1.4383   -8.1909    2.6407 H         1 <0>         0.1254
     47 H13        -1.3076   -9.3341   -1.4757 H         1 <0>         0.1330
     48 H14        -0.6640   -7.0386   -2.0881 H         1 <0>         0.1345
     49 H15        -4.0720   -9.9514    2.2012 H         1 <0>         0.1302
     50 H16        -4.4542  -10.4440    4.5823 H         1 <0>         0.1285
     51 H17        -2.5917  -11.2115    5.9966 H         1 <0>         0.1262
     52 H18        -0.3435  -11.4886    5.0339 H         1 <0>         0.1299
     53 H19         0.0445  -11.0098    2.6509 H         1 <0>         0.1332
     54 H20         6.2933   -8.5622   -1.8679 H         1 <0>         0.1154
     55 H21         7.6918   -8.1836   -0.8339 H         1 <0>         0.1013
     56 H22         6.2389   -8.9308   -0.1274 H         1 <0>         0.1151
@<TRIPOS>BOND
     1    1    2 1
     2    1   35 1
     3    1   36 1
     4    1   37 1
     5    2    3 1
     6    3    8 ar
     7    3    4 ar
     8    4    5 ar
     9    4   38 1
    10    5    6 ar
    11    5   39 1
    12    6    7 ar
    13    6   40 1
    14    7   16 1
    15    7    8 ar
    16    8    9 1
    17    9   14 ar
    18    9   10 ar
    19   10   11 ar
    20   10   41 1
    21   11   12 ar
    22   11   42 1
    23   12   13 ar
    24   12   30 1
    25   13   14 ar
    26   13   43 1
    27   14   15 1
    28   15   16 1
    29   15   17 1
    30   15   44 1
    31   17   22 ar
    32   17   18 ar
    33   18   19 ar
    34   18   45 1
    35   19   20 ar
    36   19   46 1
    37   20   21 ar
    38   20   23 1
    39   21   22 ar
    40   21   47 1
    41   22   48 1
    42   23   24 1
    43   24   29 ar
    44   24   25 ar
    45   25   26 ar
    46   25   49 1
    47   26   27 ar
    48   26   50 1
    49   27   28 ar
    50   27   51 1
    51   28   29 ar
    52   28   52 1
    53   29   53 1
    54   30   31 1
    55   31   32 2
    56   31   33 2
    57   31   34 1
    58   34   54 1
    59   34   55 1
    60   34   56 1
@<TRIPOS>MOLECULE
CHEMBL64095__1
   56    60     0     0     0
SMALL
USER_CHARGES

@<TRIPOS>ATOM
      1 C1         -2.6203    1.0050    0.8193 C.3       1 <0>         0.0219
      2 O1         -2.3205   -0.3881    0.7125 O.3       1 <0>        -0.2988
      3 C2         -3.3475   -1.2170    0.3902 C.ar      1 <0>         0.1441
      4 C3         -4.6184   -0.7031    0.1745 C.ar      1 <0>        -0.2285
      5 C4         -5.6623   -1.5491   -0.1506 C.ar      1 <0>        -0.0749
      6 C5         -5.4565   -2.9131   -0.2535 C.ar      1 <0>        -0.1777
      7 C6         -4.1962   -3.4431   -0.0369 C.ar      1 <0>         0.1472
      8 C7         -3.1305   -2.5862    0.2686 C.ar      1 <0>        -0.0939
      9 C8         -1.7894   -3.1826    0.4671 C.ar      1 <0>        -0.1509
     10 C9         -0.7470   -2.4607    1.0356 C.ar      1 <0>        -0.0339
     11 C10         0.4810   -3.0640    1.2188 C.ar      1 <0>        -0.2578
     12 C11         0.6707   -4.3871    0.8370 C.ar      1 <0>         0.2960
     13 C12        -0.3704   -5.1073    0.2610 C.ar      1 <0>        -0.1636
     14 C13        -1.5941   -4.5072    0.0673 C.ar      1 <0>        -0.0720
     15 C14        -2.7238   -5.2473   -0.5995 C.3       1 <0>         0.1883
     16 O2         -3.9838   -4.7814   -0.1034 O.3       1 <0>        -0.3028
     17 C15        -2.6520   -5.0289   -2.0889 C.ar      1 <0>        -0.1291
     18 C16        -3.1325   -3.8545   -2.6381 C.ar      1 <0>        -0.0656
     19 C17        -3.0674   -3.6516   -4.0029 C.ar      1 <0>        -0.1904
     20 C18        -2.5193   -4.6276   -4.8229 C.ar      1 <0>         0.1183
     21 C19        -2.0379   -5.8053   -4.2691 C.ar      1 <0>        -0.1448
     22 C20        -2.1006   -6.0009   -2.9031 C.ar      1 <0>        -0.0634
     23 O3         -2.4546   -4.4307   -6.1658 O.3       1 <0>        -0.2632
     24 C21        -2.9315   -3.2592   -6.6625 C.ar      1 <0>         0.0883
     25 C22        -2.0883   -2.1648   -6.7922 C.ar      1 <0>        -0.1252
     26 C23        -2.5756   -0.9751   -7.2974 C.ar      1 <0>        -0.1062
     27 C24        -3.9024   -0.8740   -7.6732 C.ar      1 <0>        -0.1207
     28 C25        -4.7448   -1.9629   -7.5446 C.ar      1 <0>        -0.1081
     29 C26        -4.2610   -3.1569   -7.0462 C.ar      1 <0>        -0.1269
     30 N1          1.9124   -4.9958    1.0323 N.2       1 <0>        -1.0945
     31 S1          3.1547   -4.1416    1.7173 S.o2      1 <0>         2.5255
     32 O4          3.4288   -3.0968    0.7939 O.2       1 <0>        -1.0285
     33 O5          2.7091   -3.8464    3.0339 O.2       1 <0>        -1.0285
     34 C27         4.5450   -5.3055    1.7745 C.3       1 <0>        -0.6375
     35 H1         -1.7148    1.5525    1.0810 H         1 <0>         0.0972
     36 H2         -3.0018    1.3687   -0.1348 H         1 <0>         0.0520
     37 H3         -3.3728    1.1565    1.5931 H         1 <0>         0.0528
     38 H4         -4.7922    0.3593    0.2610 H         1 <0>         0.1250
     39 H5         -6.6471   -1.1416   -0.3253 H         1 <0>         0.1246
     40 H6         -6.2802   -3.5654   -0.5034 H         1 <0>         0.1275
     41 H7         -0.8967   -1.4330    1.3322 H         1 <0>         0.1281
     42 H8          1.2952   -2.5074    1.6589 H         1 <0>         0.1042
     43 H9         -0.2191   -6.1353   -0.0337 H         1 <0>         0.1162
     44 H10        -2.6300   -6.3128   -0.3897 H         1 <0>         0.1273
     45 H11        -3.5593   -3.0952   -1.9995 H         1 <0>         0.1317
     46 H12        -3.4432   -2.7342   -4.4315 H         1 <0>         0.1241
     47 H13        -1.6109   -6.5666   -4.9051 H         1 <0>         0.1322
     48 H14        -1.7219   -6.9155   -2.4711 H         1 <0>         0.1354
     49 H15        -1.0521   -2.2430   -6.4981 H         1 <0>         0.1320
     50 H16        -1.9198   -0.1230   -7.3985 H         1 <0>         0.1297
     51 H17        -4.2815    0.0572   -8.0676 H         1 <0>         0.1265
     52 H18        -5.7808   -1.8812   -7.8386 H         1 <0>         0.1289
     53 H19        -4.9182   -4.0086   -6.9505 H         1 <0>         0.1303
     54 H20         4.7887   -5.6304    0.7630 H         1 <0>         0.1152
     55 H21         5.4117   -4.8147    2.2172 H         1 <0>         0.1013
     56 H22         4.2699   -6.1707    2.3777 H         1 <0>         0.1154
@<TRIPOS>BOND
     1    1    2 1
     2    1   35 1
     3    1   36 1
     4    1   37 1
     5    2    3 1
     6    3    8 ar
     7    3    4 ar
     8    4    5 ar
     9    4   38 1
    10    5    6 ar
    11    5   39 1
    12    6    7 ar
    13    6   40 1
    14    7   16 1
    15    7    8 ar
    16    8    9 1
    17    9   14 ar
    18    9   10 ar
    19   10   11 ar
    20   10   41 1
    21   11   12 ar
    22   11   42 1
    23   12   13 ar
    24   12   30 1
    25   13   14 ar
    26   13   43 1
    27   14   15 1
    28   15   16 1
    29   15   17 1
    30   15   44 1
    31   17   22 ar
    32   17   18 ar
    33   18   19 ar
    34   18   45 1
    35   19   20 ar
    36   19   46 1
    37   20   21 ar
    38   20   23 1
    39   21   22 ar
    40   21   47 1
    41   22   48 1
    42   23   24 1
    43   24   29 ar
    44   24   25 ar
    45   25   26 ar
    46   25   49 1
    47   26   27 ar
    48   26   50 1
    49   27   28 ar
    50   27   51 1
    51   28   29 ar
    52   28   52 1
    53   29   53 1
    54   30   31 1
    55   31   32 2
    56   31   33 2
    57   31   34 1
    58   34   54 1
    59   34   55 1
    60   34   56 1
@<TRIPOS>MOLECULE
CHEMBL501080
   45    48     0     0     0
SMALL
USER_CHARGES

@<TRIPOS>ATOM
      1 C1          0.6511   -0.3704   -1.3549 C.3       1 <0>        -0.1576
      2 C2         -0.0994    0.1981   -0.1489 C.3       1 <0>        -0.1143
      3 C3         -1.4333   -0.5336    0.0129 C.3       1 <0>         0.2601
      4 C4         -1.1489   -1.9829    0.2594 C.ar      1 <0>        -0.1390
      5 C5          0.1032   -2.2751    0.7904 C.ar      1 <0>        -0.0583
      6 C6          0.4831   -3.5825    1.0595 C.ar      1 <0>        -0.0788
      7 C7         -0.4094   -4.6195    0.7908 C.ar      1 <0>        -0.0563
      8 C8         -1.6439   -4.3308    0.2687 C.ar      1 <0>        -0.1606
      9 C9         -2.0355   -3.0080   -0.0039 C.ar      1 <0>         0.2068
     10 N1         -3.3056   -2.8680   -0.5173 N.am      1 <0>        -0.6464
     11 C10        -3.9884   -1.8818   -1.0348 C.2       1 <0>         0.4996
     12 O1         -5.0285   -2.1686   -1.5889 O.2       1 <0>        -0.5243
     13 C11        -3.6157   -0.4394   -1.0110 C.3       1 <0>         0.0484
     14 O2         -2.2207   -0.2654   -1.1089 O.3       1 <0>        -0.3418
     15 C12         1.8232   -3.8734    1.6260 C.ar      1 <0>        -0.0033
     16 C13         2.1984   -5.1873    1.8875 C.ar      1 <0>        -0.0768
     17 C14         3.4592   -5.4543    2.4194 C.ar      1 <0>         0.0144
     18 C15         4.3381   -4.4020    2.6866 C.ar      1 <0>        -0.1098
     19 C16         3.9584   -3.0989    2.4242 C.ar      1 <0>         0.1136
     20 C17         2.7098   -2.8309    1.8914 C.ar      1 <0>        -0.1231
     21 F1          4.8113   -2.0839    2.6844 F         1 <0>        -0.1276
     22 C18         3.8521   -6.8042    2.6916 C.1       1 <0>         0.2474
     23 N2          4.1637   -7.8751    2.9075 N.1       1 <0>        -0.3948
     24 C19        -2.1323    0.0221    1.2268 C.2       1 <0>        -0.0669
     25 C20        -2.0956   -0.5028    2.4648 C.2       1 <0>        -0.1786
     26 C21        -2.8848    0.3332    3.2877 C.2       1 <0>        -0.2139
     27 C22        -3.3565    1.3190    2.5034 C.2       1 <0>        -0.0316
     28 O3         -2.8928    1.1286    1.2574 O.3       1 <0>        -0.1663
     29 H1          1.6014    0.1508   -1.4702 H         1 <0>         0.0635
     30 H2          0.8362   -1.4333   -1.1996 H         1 <0>         0.0619
     31 H3          0.0504   -0.2339   -2.2541 H         1 <0>         0.0676
     32 H4          0.5014    0.0615    0.7502 H         1 <0>         0.0869
     33 H5         -0.2845    1.2609   -0.3042 H         1 <0>         0.0850
     34 H6          0.7926   -1.4697    0.9967 H         1 <0>         0.1447
     35 H7         -0.1302   -5.6432    0.9922 H         1 <0>         0.1394
     36 H8         -2.3313   -5.1378    0.0621 H         1 <0>         0.1368
     37 H9         -3.8114   -3.6951   -0.4882 H         1 <0>         0.4023
     38 H10        -4.0975    0.0670   -1.8473 H         1 <0>         0.1453
     39 H11        -3.9653    0.0037   -0.0785 H         1 <0>         0.0989
     40 H12         1.5153   -5.9975    1.6796 H         1 <0>         0.1443
     41 H13         5.3151   -4.6066    3.0989 H         1 <0>         0.1490
     42 H14         2.4201   -1.8113    1.6841 H         1 <0>         0.1461
     43 H15        -1.5656   -1.3925    2.7712 H         1 <0>         0.1496
     44 H16        -3.0731    0.2048    4.3433 H         1 <0>         0.1519
     45 H17        -3.9964    2.1284    2.8224 H         1 <0>         0.2070
@<TRIPOS>BOND
     1    1    2 1
     2    1   29 1
     3    1   30 1
     4    1   31 1
     5    2    3 1
     6    2   32 1
     7    2   33 1
     8    3   14 1
     9    3    4 1
    10    3   24 1
    11    4    9 ar
    12    4    5 ar
    13    5    6 ar
    14    5   34 1
    15    6    7 ar
    16    6   15 1
    17    7    8 ar
    18    7   35 1
    19    8    9 ar
    20    8   36 1
    21    9   10 1
    22   10   11 am
    23   10   37 1
    24   11   12 2
    25   11   13 1
    26   13   14 1
    27   13   38 1
    28   13   39 1
    29   15   20 ar
    30   15   16 ar
    31   16   17 ar
    32   16   40 1
    33   17   18 ar
    34   17   22 1
    35   18   19 ar
    36   18   41 1
    37   19   20 ar
    38   19   21 1
    39   20   42 1
    40   22   23 3
    41   24   28 1
    42   24   25 2
    43   25   26 1
    44   25   43 1
    45   26   27 2
    46   26   44 1
    47   27   28 1
    48   27   45 1
@<TRIPOS>MOLECULE
CHEMBL501080__1
   45    48     0     0     0
SMALL
USER_CHARGES

@<TRIPOS>ATOM
      1 C1         -0.0095    1.5057    0.2499 C.3       1 <0>        -0.1523
      2 C2          0.0021   -0.0041    0.0020 C.3       1 <0>        -0.1145
      3 C3         -1.4333   -0.5336    0.0129 C.3       1 <0>         0.2588
      4 C4         -1.3944   -2.0060   -0.2566 C.ar      1 <0>        -0.1418
      5 C5         -0.2734   -2.4702   -0.9372 C.ar      1 <0>        -0.0612
      6 C6         -0.1231   -3.8158   -1.2419 C.ar      1 <0>        -0.0767
      7 C7         -1.1159   -4.7159   -0.8566 C.ar      1 <0>        -0.0566
      8 C8         -2.2211   -4.2576   -0.1870 C.ar      1 <0>        -0.1598
      9 C9         -2.3803   -2.8951    0.1225 C.ar      1 <0>         0.2071
     10 N1         -3.5430   -2.5787    0.7890 N.am      1 <0>        -0.6467
     11 C10        -4.0065   -1.5099    1.3802 C.2       1 <0>         0.4995
     12 O1         -4.9999   -1.6496    2.0618 O.2       1 <0>        -0.5242
     13 C11        -3.4351   -0.1362    1.2993 C.3       1 <0>         0.0480
     14 O2         -2.0280   -0.1667    1.2220 O.3       1 <0>        -0.3414
     15 C12         1.0795   -4.2908   -1.9695 C.ar      1 <0>        -0.0038
     16 C13         1.2199   -5.6406   -2.2763 C.ar      1 <0>        -0.0767
     17 C14         2.3519   -6.0809   -2.9606 C.ar      1 <0>         0.0144
     18 C15         3.3383   -5.1651   -3.3342 C.ar      1 <0>        -0.1097
     19 C16         3.1922   -3.8254   -3.0261 C.ar      1 <0>         0.1135
     20 C17         2.0673   -3.3844   -2.3516 C.ar      1 <0>        -0.1229
     21 F1          4.1487   -2.9430   -3.3889 F         1 <0>        -0.1276
     22 C18         2.5034   -7.4687   -3.2793 C.1       1 <0>         0.2475
     23 N2          2.6235   -8.5697   -3.5321 N.1       1 <0>        -0.3947
     24 C19        -2.1899    0.1303   -1.1086 C.2       1 <0>        -0.0606
     25 C20        -2.3718   -0.3747   -2.3420 C.2       1 <0>        -0.1809
     26 C21        -3.1328    0.5728   -3.0645 C.2       1 <0>        -0.2132
     27 C22        -3.3704    1.6002   -2.2294 C.2       1 <0>        -0.0337
     28 O3         -2.8019    1.3241   -1.0444 O.3       1 <0>        -0.1649
     29 H1          1.0131    1.8830    0.2422 H         1 <0>         0.0611
     30 H2         -0.5844    1.9983   -0.5342 H         1 <0>         0.0569
     31 H3         -0.4653    1.7114    1.2184 H         1 <0>         0.0678
     32 H4          0.4579   -0.2097   -0.9665 H         1 <0>         0.0871
     33 H5          0.5770   -0.4966    0.7862 H         1 <0>         0.0881
     34 H6          0.4938   -1.7706   -1.2342 H         1 <0>         0.1441
     35 H7         -1.0151   -5.7668   -1.0844 H         1 <0>         0.1396
     36 H8         -2.9869   -4.9590    0.1095 H         1 <0>         0.1370
     37 H9         -4.1631   -3.3236    0.8284 H         1 <0>         0.4023
     38 H10        -3.8301    0.3625    0.4142 H         1 <0>         0.1000
     39 H11        -3.7312    0.4256    2.1853 H         1 <0>         0.1452
     40 H12         0.4547   -6.3449   -1.9850 H         1 <0>         0.1444
     41 H13         4.2163   -5.5041   -3.8641 H         1 <0>         0.1490
     42 H14         1.9561   -2.3360   -2.1174 H         1 <0>         0.1463
     43 H15        -2.0061   -1.3220   -2.7099 H         1 <0>         0.1489
     44 H16        -3.4602    0.4881   -4.0902 H         1 <0>         0.1512
     45 H17        -3.9274    2.4937   -2.4699 H         1 <0>         0.2061
@<TRIPOS>BOND
     1    1    2 1
     2    1   29 1
     3    1   30 1
     4    1   31 1
     5    2    3 1
     6    2   32 1
     7    2   33 1
     8    3   14 1
     9    3    4 1
    10    3   24 1
    11    4    9 ar
    12    4    5 ar
    13    5    6 ar
    14    5   34 1
    15    6    7 ar
    16    6   15 1
    17    7    8 ar
    18    7   35 1
    19    8    9 ar
    20    8   36 1
    21    9   10 1
    22   10   11 am
    23   10   37 1
    24   11   12 2
    25   11   13 1
    26   13   14 1
    27   13   38 1
    28   13   39 1
    29   15   20 ar
    30   15   16 ar
    31   16   17 ar
    32   16   40 1
    33   17   18 ar
    34   17   22 1
    35   18   19 ar
    36   18   41 1
    37   19   20 ar
    38   19   21 1
    39   20   42 1
    40   22   23 3
    41   24   28 1
    42   24   25 2
    43   25   26 1
    44   25   43 1
    45   26   27 2
    46   26   44 1
    47   27   28 1
    48   27   45 1
@<TRIPOS>MOLECULE
CHEMBL481784
   57    59     0     0     0
SMALL
USER_CHARGES

@<TRIPOS>ATOM
      1 C1          0.4823    1.6572    0.5281 C.3       1 <0>        -0.1735
      2 C2          0.3579    0.1324    0.5466 C.3       1 <0>         0.0955
      3 N1          0.9528   -0.4210   -0.6725 N.am      1 <0>        -0.6041
      4 C3          2.3906   -0.6968   -0.7261 C.3       1 <0>         0.0891
      5 C4          2.6531   -2.1285   -0.2546 C.3       1 <0>         0.0644
      6 C5          4.1547   -2.4166   -0.3105 C.3       1 <0>         0.0971
      7 N2          4.8635   -1.4869    0.5724 N.am      1 <0>        -0.7289
      8 C6          6.2107   -1.4876    0.6097 C.2       1 <0>         0.6140
      9 O1          6.8384   -2.2605   -0.0899 O.2       1 <0>        -0.5523
     10 C7          6.9208   -0.5563    1.4942 C.2       1 <0>        -0.3724
     11 C8          6.3330    0.3912    2.3655 C.2       1 <0>         0.1212
     12 N3          7.2893    1.0275    2.9811 N.2       1 <0>        -0.2899
     13 N4          8.5247    0.5340    2.5483 N.pl3     1 <0>        -0.3481
     14 C9          8.3015   -0.4412    1.6400 C.2       1 <0>         0.4489
     15 N5          9.2605   -1.1817    0.9794 N.pl3     1 <0>        -0.8241
     16 C10         9.7819    0.9734    2.9869 C.ar      1 <0>         0.1432
     17 C11        10.8310    0.0718    3.1050 C.ar      1 <0>        -0.1186
     18 C12        12.0686    0.5064    3.5371 C.ar      1 <0>        -0.1249
     19 C13        12.2635    1.8407    3.8526 C.ar      1 <0>         0.1011
     20 C14        11.2181    2.7415    3.7359 C.ar      1 <0>        -0.1281
     21 C15         9.9808    2.3117    3.2981 C.ar      1 <0>        -0.0769
     22 F1         13.4748    2.2641    4.2752 F         1 <0>        -0.1309
     23 C16         1.9114   -3.1093   -1.1650 C.3       1 <0>         0.4809
     24 F2          2.2578   -2.8618   -2.4976 F         1 <0>        -0.1510
     25 F3          2.2664   -4.4195   -0.8264 F         1 <0>        -0.1761
     26 F4          0.5317   -2.9435   -1.0033 F         1 <0>        -0.1704
     27 O2          2.1886   -2.2805    1.0882 O.3       1 <0>        -0.5239
     28 C17         0.1772   -0.6762   -1.7448 C.2       1 <0>         0.5715
     29 O3          0.6568   -1.2019   -2.7305 O.2       1 <0>        -0.4985
     30 C18        -1.2559   -0.3171   -1.7224 C.ar      1 <0>        -0.1590
     31 C19        -2.1051   -0.8376   -0.7383 C.ar      1 <0>        -0.0344
     32 C20        -3.4386   -0.4698   -0.7612 C.ar      1 <0>        -0.1709
     33 C21        -3.8873    0.3923   -1.7459 C.ar      1 <0>         0.1383
     34 N6         -3.0653    0.8681   -2.6614 N.ar      1 <0>        -0.4756
     35 C22        -1.7856    0.5522   -2.6793 C.ar      1 <0>         0.2134
     36 Cl1        -0.7518    1.2160   -3.9058 Cl        1 <0>        -0.0070
     37 H1          1.5351    1.9353    0.4789 H         1 <0>         0.0615
     38 H2         -0.0393    2.0537   -0.3430 H         1 <0>         0.0570
     39 H3          0.0398    2.0689    1.4351 H         1 <0>         0.0724
     40 H4          0.8796   -0.2642    1.4177 H         1 <0>         0.0878
     41 H5         -0.6948   -0.1457    0.5958 H         1 <0>         0.0878
     42 H6          2.7449   -0.5808   -1.7503 H         1 <0>         0.1150
     43 H7          2.9190    0.0020   -0.0775 H         1 <0>         0.1052
     44 H8          4.3406   -3.4401    0.0150 H         1 <0>         0.0965
     45 H9          4.5111   -2.2900   -1.3328 H         1 <0>         0.0979
     46 H10         4.3632   -0.8708    1.1301 H         1 <0>         0.3943
     47 H11         5.2742    0.5584    2.4973 H         1 <0>         0.1925
     48 H12         8.9937   -1.8611    0.3404 H         1 <0>         0.4337
     49 H13        10.2014   -1.0229    1.1539 H         1 <0>         0.4044
     50 H14        10.6793   -0.9690    2.8594 H         1 <0>         0.1401
     51 H15        12.8848   -0.1947    3.6295 H         1 <0>         0.1499
     52 H16        11.3718    3.7815    3.9830 H         1 <0>         0.1495
     53 H17         9.1672    3.0155    3.2023 H         1 <0>         0.1482
     54 H18         2.6165   -1.6885    1.7218 H         1 <0>         0.3885
     55 H19        -1.7288   -1.5093    0.0190 H         1 <0>         0.1530
     56 H20        -4.1226   -0.8522   -0.0180 H         1 <0>         0.1529
     57 H21        -4.9280    0.6802   -1.7656 H         1 <0>         0.1732
@<TRIPOS>BOND
     1    1    2 1
     2    1   37 1
     3    1   38 1
     4    1   39 1
     5    2    3 1
     6    2   40 1
     7    2   41 1
     8    3    4 1
     9    3   28 am
    10    4    5 1
    11    4   42 1
    12    4   43 1
    13    5    6 1
    14    5   23 1
    15    5   27 1
    16    6    7 1
    17    6   44 1
    18    6   45 1
    19    7    8 am
    20    7   46 1
    21    8    9 2
    22    8   10 1
    23   10   14 2
    24   10   11 1
    25   11   12 2
    26   11   47 1
    27   12   13 1
    28   13   14 1
    29   13   16 1
    30   14   15 1
    31   15   48 1
    32   15   49 1
    33   16   21 ar
    34   16   17 ar
    35   17   18 ar
    36   17   50 1
    37   18   19 ar
    38   18   51 1
    39   19   20 ar
    40   19   22 1
    41   20   21 ar
    42   20   52 1
    43   21   53 1
    44   23   24 1
    45   23   25 1
    46   23   26 1
    47   27   54 1
    48   28   29 2
    49   28   30 1
    50   30   35 ar
    51   30   31 ar
    52   31   32 ar
    53   31   55 1
    54   32   33 ar
    55   32   56 1
    56   33   34 ar
    57   33   57 1
    58   34   35 ar
    59   35   36 1
@<TRIPOS>MOLECULE
CHEMBL481784__1
   57    59     0     0     0
SMALL
USER_CHARGES

@<TRIPOS>ATOM
      1 C1         -0.2220    1.6311   -0.2586 C.3       1 <0>        -0.1757
      2 C2          0.0235    0.1353   -0.0514 C.3       1 <0>         0.0920
      3 N1          0.6975   -0.4168   -1.2292 N.am      1 <0>        -0.6015
      4 C3          2.1562   -0.5515   -1.2425 C.3       1 <0>         0.0906
      5 C4          2.5466   -1.9249   -0.6926 C.3       1 <0>         0.0658
      6 C5          4.0702   -2.0187   -0.5897 C.3       1 <0>         0.0957
      7 N2          4.4440   -3.3338   -0.0632 N.am      1 <0>        -0.7292
      8 C6          5.7435   -3.6442    0.1139 C.2       1 <0>         0.6120
      9 O1          6.6063   -2.8322   -0.1635 O.2       1 <0>        -0.5632
     10 C7          6.1180   -4.9616    0.6414 C.2       1 <0>        -0.3697
     11 C8          5.2343   -6.0065    1.0016 C.2       1 <0>         0.1250
     12 N3          5.9448   -7.0137    1.4249 N.2       1 <0>        -0.2923
     13 N4          7.3018   -6.6795    1.3621 N.pl3     1 <0>        -0.3494
     14 C9          7.4112   -5.4231    0.8769 C.2       1 <0>         0.4462
     15 N5          8.5828   -4.7274    0.6584 N.pl3     1 <0>        -0.8251
     16 C10         8.3684   -7.5099    1.7346 C.ar      1 <0>         0.1455
     17 C11         9.5680   -7.4553    1.0378 C.ar      1 <0>        -0.1193
     18 C12        10.6175   -8.2740    1.4062 C.ar      1 <0>        -0.1249
     19 C13        10.4738   -9.1491    2.4698 C.ar      1 <0>         0.0995
     20 C14         9.2778   -9.2054    3.1657 C.ar      1 <0>        -0.1279
     21 C15         8.2282   -8.3838    2.8043 C.ar      1 <0>        -0.0777
     22 F1         11.5014   -9.9493    2.8287 F         1 <0>        -0.1315
     23 C16         1.9292   -2.1131    0.6945 C.3       1 <0>         0.4724
     24 F2          0.5360   -2.0273    0.6004 F         1 <0>        -0.1679
     25 F3          2.2861   -3.3689    1.1973 F         1 <0>        -0.1694
     26 F4          2.4008   -1.1153    1.5542 F         1 <0>        -0.1682
     27 O2          2.0648   -2.9441   -1.5708 O.3       1 <0>        -0.5238
     28 C17        -0.0245   -0.8007   -2.3005 C.2       1 <0>         0.5797
     29 O3          0.5255   -1.3321   -3.2454 O.2       1 <0>        -0.5023
     30 C18        -1.4847   -0.5757   -2.3266 C.ar      1 <0>        -0.1604
     31 C19        -2.3070   -1.1212   -1.3333 C.ar      1 <0>        -0.0345
     32 C20        -3.6677   -0.8806   -1.4030 C.ar      1 <0>        -0.1701
     33 C21        -4.1686   -0.1161   -2.4416 C.ar      1 <0>         0.1385
     34 N6         -3.3710    0.3860   -3.3646 N.ar      1 <0>        -0.4755
     35 C22        -2.0676    0.1898   -3.3395 C.ar      1 <0>         0.2132
     36 Cl1        -1.0686    0.8824   -4.5788 Cl        1 <0>        -0.0080
     37 H1          0.7314    2.1392   -0.4032 H         1 <0>         0.0633
     38 H2         -0.8490    1.7780   -1.1381 H         1 <0>         0.0555
     39 H3         -0.7235    2.0419    0.6177 H         1 <0>         0.0726
     40 H4          0.6505   -0.0116    0.8281 H         1 <0>         0.0870
     41 H5         -0.9299   -0.3729    0.0932 H         1 <0>         0.0881
     42 H6          2.5209   -0.4524   -2.2649 H         1 <0>         0.1176
     43 H7          2.5987    0.2276   -0.6218 H         1 <0>         0.1082
     44 H8          4.5101   -1.8846   -1.5780 H         1 <0>         0.0975
     45 H9          4.4377   -1.2413    0.0801 H         1 <0>         0.0924
     46 H10         3.7562   -3.9810    0.1579 H         1 <0>         0.4080
     47 H11         4.1567   -5.9746    0.9371 H         1 <0>         0.1935
     48 H12         8.5520   -3.8238    0.3072 H         1 <0>         0.4330
     49 H13         9.4371   -5.1420    0.8562 H         1 <0>         0.4035
     50 H14         9.6804   -6.7732    0.2080 H         1 <0>         0.1400
     51 H15        11.5507   -8.2320    0.8642 H         1 <0>         0.1494
     52 H16         9.1674   -9.8890    3.9945 H         1 <0>         0.1491
     53 H17         7.2974   -8.4243    3.3505 H         1 <0>         0.1482
     54 H18         2.4156   -2.8866   -2.4701 H         1 <0>         0.4056
     55 H19        -1.8899   -1.7148   -0.5333 H         1 <0>         0.1526
     56 H20        -4.3322   -1.2858   -0.6543 H         1 <0>         0.1529
     57 H21        -5.2305    0.0725   -2.4979 H         1 <0>         0.1733
@<TRIPOS>BOND
     1    1    2 1
     2    1   37 1
     3    1   38 1
     4    1   39 1
     5    2    3 1
     6    2   40 1
     7    2   41 1
     8    3    4 1
     9    3   28 am
    10    4    5 1
    11    4   42 1
    12    4   43 1
    13    5    6 1
    14    5   23 1
    15    5   27 1
    16    6    7 1
    17    6   44 1
    18    6   45 1
    19    7    8 am
    20    7   46 1
    21    8    9 2
    22    8   10 1
    23   10   14 2
    24   10   11 1
    25   11   12 2
    26   11   47 1
    27   12   13 1
    28   13   14 1
    29   13   16 1
    30   14   15 1
    31   15   48 1
    32   15   49 1
    33   16   21 ar
    34   16   17 ar
    35   17   18 ar
    36   17   50 1
    37   18   19 ar
    38   18   51 1
    39   19   20 ar
    40   19   22 1
    41   20   21 ar
    42   20   52 1
    43   21   53 1
    44   23   24 1
    45   23   25 1
    46   23   26 1
    47   27   54 1
    48   28   29 2
    49   28   30 1
    50   30   35 ar
    51   30   31 ar
    52   31   32 ar
    53   31   55 1
    54   32   33 ar
    55   32   56 1
    56   33   34 ar
    57   33   57 1
    58   34   35 ar
    59   35   36 1
@<TRIPOS>MOLECULE
CHEMBL270588
   74    79     0     0     0
SMALL
USER_CHARGES

@<TRIPOS>ATOM
      1 C1         -0.0187    1.5258    0.0104 C.3       1 <0>        -0.1395
      2 C2          0.0021   -0.0041    0.0020 C.3       1 <0>        -0.0387
      3 C3          0.7421   -0.5109    1.2415 C.3       1 <0>        -0.1412
      4 C4         -1.4333   -0.5336    0.0129 C.3       1 <0>        -0.1479
      5 C5          0.7074   -0.4901   -1.2379 C.ar      1 <0>        -0.0097
      6 C6          0.0361   -1.2843   -2.1485 C.ar      1 <0>        -0.1415
      7 C7          0.6831   -1.7301   -3.2859 C.ar      1 <0>        -0.0161
      8 C8          2.0014   -1.3813   -3.5127 C.ar      1 <0>        -0.6826
      9 C9          2.6724   -0.5863   -2.6025 C.ar      1 <0>        -0.0168
     10 C10         2.0241   -0.1370   -1.4673 C.ar      1 <0>        -0.1356
     11 S1          2.8264   -1.9505   -4.9618 S.o2      1 <0>         2.6886
     12 O1          4.2169   -1.9365   -4.6694 O.2       1 <0>        -0.9513
     13 O2          2.1477   -3.1268   -5.3801 O.2       1 <0>        -0.9530
     14 N1          2.5798   -0.8164   -6.1431 N.pl3     1 <0>        -0.9954
     15 C11         1.4116   -0.9199   -7.0234 C.3       1 <0>         0.1138
     16 C12         1.7414   -0.2684   -8.3724 C.3       1 <0>        -0.0913
     17 C13         2.1066    1.1785   -8.1178 C.2       1 <0>        -0.0648
     18 C14         1.7743    2.1000   -9.0216 C.2       1 <0>        -0.1060
     19 C15         2.1866    3.4881   -8.7584 C.2       1 <0>         0.1273
     20 C16         3.1434    3.7710   -7.7890 C.2       1 <0>        -0.2237
     21 C17         3.3246    5.1395   -7.7647 C.2       1 <0>         0.0686
     22 N2          2.5410    5.6810   -8.6711 N.2       1 <0>        -0.2847
     23 N3          1.8228    4.6610   -9.3186 N.pl3     1 <0>        -0.2965
     24 C18         0.8970    4.8309  -10.3567 C.ar      1 <0>         0.1484
     25 C19         0.7934    3.8755  -11.3591 C.ar      1 <0>        -0.1045
     26 C20        -0.1196    4.0448  -12.3813 C.ar      1 <0>        -0.1323
     27 C21        -0.9315    5.1665  -12.4071 C.ar      1 <0>         0.0990
     28 C22        -0.8296    6.1204  -11.4084 C.ar      1 <0>        -0.1325
     29 C23         0.0781    5.9520  -10.3813 C.ar      1 <0>        -0.0772
     30 F1         -1.8237    5.3305  -13.4083 F         1 <0>        -0.1337
     31 C24         3.7921    2.6741   -6.9864 C.3       1 <0>        -0.0277
     32 C25         2.7910    1.5282   -6.8225 C.3       1 <0>        -0.0208
     33 C26         3.5264    0.2911   -6.3018 C.3       1 <0>         0.1340
     34 C27         1.7365    1.9257   -5.7877 C.3       1 <0>        -0.0675
     35 C28         0.9645    3.1185   -6.2899 C.ar      1 <0>        -0.0844
     36 C29         1.4037    4.3970   -6.0010 C.ar      1 <0>        -0.0648
     37 C30         0.6969    5.4917   -6.4614 C.ar      1 <0>        -0.1478
     38 C31        -0.4517    5.3075   -7.2123 C.ar      1 <0>         0.0990
     39 C32        -0.8907    4.0264   -7.5010 C.ar      1 <0>        -0.1571
     40 C33        -0.1793    2.9333   -7.0440 C.ar      1 <0>        -0.0827
     41 F2         -1.1438    6.3768   -7.6625 F         1 <0>        -0.1430
     42 H1          1.0039    1.9031    0.0027 H         1 <0>         0.0592
     43 H2         -0.5459    1.8868   -0.8726 H         1 <0>         0.0579
     44 H3         -0.5289    1.8773    0.9072 H         1 <0>         0.0632
     45 H4          0.2319   -0.1594    2.1383 H         1 <0>         0.0637
     46 H5          0.7568   -1.6008    1.2356 H         1 <0>         0.0585
     47 H6          1.7647   -0.1336    1.2338 H         1 <0>         0.0595
     48 H7         -1.9605   -0.1726   -0.8702 H         1 <0>         0.0606
     49 H8         -1.4185   -1.6235    0.0069 H         1 <0>         0.0609
     50 H9         -1.9435   -0.1821    0.9097 H         1 <0>         0.0628
     51 H10        -0.9938   -1.5568   -1.9713 H         1 <0>         0.1365
     52 H11         0.1588   -2.3512   -3.9970 H         1 <0>         0.1382
     53 H12         3.7024   -0.3141   -2.7796 H         1 <0>         0.1384
     54 H13         2.5473    0.4872   -0.7580 H         1 <0>         0.1314
     55 H14         1.1627   -1.9699   -7.1768 H         1 <0>         0.0983
     56 H15         0.5651   -0.4062   -6.5677 H         1 <0>         0.0697
     57 H16         2.5827   -0.7846   -8.8348 H         1 <0>         0.0941
     58 H17         0.8721   -0.3189   -9.0280 H         1 <0>         0.0928
     59 H18         1.2240    1.8380   -9.9132 H         1 <0>         0.1313
     60 H19         3.9968    5.6752   -7.1108 H         1 <0>         0.1839
     61 H20         1.4266    3.0009  -11.3395 H         1 <0>         0.1404
     62 H21        -0.2002    3.3022  -13.1613 H         1 <0>         0.1462
     63 H22        -1.4634    6.9947  -11.4305 H         1 <0>         0.1452
     64 H23         0.1541    6.6940   -9.6002 H         1 <0>         0.1442
     65 H24         4.6781    2.3137   -7.5090 H         1 <0>         0.0792
     66 H25         4.0738    3.0566   -6.0053 H         1 <0>         0.0842
     67 H26         3.9841    0.5184   -5.3390 H         1 <0>         0.0880
     68 H27         4.3013    0.0072   -7.0139 H         1 <0>         0.0795
     69 H28         1.0529    1.0920   -5.6268 H         1 <0>         0.0814
     70 H29         2.2271    2.1798   -4.8481 H         1 <0>         0.0807
     71 H30         2.2995    4.5405   -5.4149 H         1 <0>         0.1272
     72 H31         1.0400    6.4904   -6.2352 H         1 <0>         0.1283
     73 H32        -1.7867    3.8816   -8.0864 H         1 <0>         0.1252
     74 H33        -0.5191    1.9341   -7.2729 H         1 <0>         0.1231
@<TRIPOS>BOND
     1    1    2 1
     2    1   42 1
     3    1   43 1
     4    1   44 1
     5    2    3 1
     6    2    4 1
     7    2    5 1
     8    3   45 1
     9    3   46 1
    10    3   47 1
    11    4   48 1
    12    4   49 1
    13    4   50 1
    14    5   10 ar
    15    5    6 ar
    16    6    7 ar
    17    6   51 1
    18    7    8 ar
    19    7   52 1
    20    8    9 ar
    21    8   11 1
    22    9   10 ar
    23    9   53 1
    24   10   54 1
    25   11   12 2
    26   11   13 2
    27   11   14 1
    28   14   33 1
    29   14   15 1
    30   15   16 1
    31   15   55 1
    32   15   56 1
    33   16   17 1
    34   16   57 1
    35   16   58 1
    36   17   32 1
    37   17   18 2
    38   18   19 1
    39   18   59 1
    40   19   23 1
    41   19   20 2
    42   20   21 1
    43   20   31 1
    44   21   22 2
    45   21   60 1
    46   22   23 1
    47   23   24 1
    48   24   29 ar
    49   24   25 ar
    50   25   26 ar
    51   25   61 1
    52   26   27 ar
    53   26   62 1
    54   27   28 ar
    55   27   30 1
    56   28   29 ar
    57   28   63 1
    58   29   64 1
    59   31   32 1
    60   31   65 1
    61   31   66 1
    62   32   33 1
    63   32   34 1
    64   33   67 1
    65   33   68 1
    66   34   35 1
    67   34   69 1
    68   34   70 1
    69   35   40 ar
    70   35   36 ar
    71   36   37 ar
    72   36   71 1
    73   37   38 ar
    74   37   72 1
    75   38   39 ar
    76   38   41 1
    77   39   40 ar
    78   39   73 1
    79   40   74 1
@<TRIPOS>MOLECULE
CHEMBL270588__1
   74    79     0     0     0
SMALL
USER_CHARGES

@<TRIPOS>ATOM
      1 C1         -0.0187    1.5258    0.0104 C.3       1 <0>        -0.1399
      2 C2          0.0021   -0.0041    0.0020 C.3       1 <0>        -0.0390
      3 C3          0.7421   -0.5109    1.2415 C.3       1 <0>        -0.1413
      4 C4         -1.4333   -0.5336    0.0129 C.3       1 <0>        -0.1479
      5 C5          0.7074   -0.4901   -1.2379 C.ar      1 <0>        -0.0109
      6 C6          0.0361   -1.2843   -2.1485 C.ar      1 <0>        -0.1422
      7 C7          0.6831   -1.7301   -3.2859 C.ar      1 <0>        -0.0176
      8 C8          2.0014   -1.3813   -3.5127 C.ar      1 <0>        -0.6832
      9 C9          2.6724   -0.5863   -2.6025 C.ar      1 <0>        -0.0166
     10 C10         2.0241   -0.1370   -1.4673 C.ar      1 <0>        -0.1364
     11 S1          2.8264   -1.9505   -4.9618 S.o2      1 <0>         2.6888
     12 O1          4.2169   -1.9365   -4.6694 O.2       1 <0>        -0.9517
     13 O2          2.1477   -3.1268   -5.3801 O.2       1 <0>        -0.9515
     14 N1          2.5798   -0.8164   -6.1431 N.pl3     1 <0>        -0.9958
     15 C11         1.4116   -0.9199   -7.0234 C.3       1 <0>         0.1237
     16 C12         1.0163    0.4840   -7.4986 C.3       1 <0>        -0.0938
     17 C13         2.1993    1.0823   -8.2295 C.2       1 <0>        -0.0658
     18 C14         1.9800    1.8865   -9.2694 C.2       1 <0>        -0.1051
     19 C15         3.1547    2.4835   -9.9251 C.2       1 <0>         0.1261
     20 C16         4.3977    2.4694   -9.3005 C.2       1 <0>        -0.2232
     21 C17         5.2976    3.0921  -10.1423 C.2       1 <0>         0.0688
     22 N2          4.6575    3.4847  -11.2217 N.2       1 <0>        -0.2844
     23 N3          3.3042    3.1237  -11.1040 N.pl3     1 <0>        -0.2962
     24 C18         2.2939    3.3819  -12.0399 C.ar      1 <0>         0.1475
     25 C19         1.2676    2.4652  -12.2258 C.ar      1 <0>        -0.1030
     26 C20         0.2729    2.7214  -13.1488 C.ar      1 <0>        -0.1338
     27 C21         0.2984    3.8918  -13.8888 C.ar      1 <0>         0.0999
     28 C22         1.3211    4.8073  -13.7049 C.ar      1 <0>        -0.1338
     29 C23         2.3146    4.5574  -12.7788 C.ar      1 <0>        -0.0804
     30 F1         -0.6754    4.1404  -14.7916 F         1 <0>        -0.1336
     31 C24         4.5819    1.8546   -7.9381 C.3       1 <0>        -0.0276
     32 C25         3.5862    0.7031   -7.7807 C.3       1 <0>        -0.0161
     33 C26         3.5264    0.2911   -6.3018 C.3       1 <0>         0.1238
     34 C27         4.0697   -0.4956   -8.5994 C.3       1 <0>        -0.0709
     35 C28         4.0937   -0.1287  -10.0609 C.ar      1 <0>        -0.0849
     36 C29         2.9723   -0.3338  -10.8430 C.ar      1 <0>        -0.0884
     37 C30         2.9930    0.0026  -12.1832 C.ar      1 <0>        -0.1628
     38 C31         4.1374    0.5452  -12.7427 C.ar      1 <0>         0.1026
     39 C32         5.2600    0.7502  -11.9584 C.ar      1 <0>        -0.1465
     40 C33         5.2352    0.4178  -10.6172 C.ar      1 <0>        -0.0643
     41 F2          4.1590    0.8741  -14.0529 F         1 <0>        -0.1422
     42 H1          1.0039    1.9031    0.0027 H         1 <0>         0.0593
     43 H2         -0.5459    1.8868   -0.8726 H         1 <0>         0.0578
     44 H3         -0.5289    1.8773    0.9072 H         1 <0>         0.0637
     45 H4          0.2319   -0.1594    2.1383 H         1 <0>         0.0640
     46 H5          0.7568   -1.6008    1.2356 H         1 <0>         0.0587
     47 H6          1.7647   -0.1336    1.2338 H         1 <0>         0.0596
     48 H7         -1.9605   -0.1726   -0.8702 H         1 <0>         0.0606
     49 H8         -1.4185   -1.6235    0.0069 H         1 <0>         0.0611
     50 H9         -1.9435   -0.1821    0.9097 H         1 <0>         0.0631
     51 H10        -0.9938   -1.5568   -1.9713 H         1 <0>         0.1372
     52 H11         0.1588   -2.3512   -3.9970 H         1 <0>         0.1384
     53 H12         3.7024   -0.3141   -2.7796 H         1 <0>         0.1394
     54 H13         2.5473    0.4872   -0.7580 H         1 <0>         0.1320
     55 H14         1.6582   -1.5404   -7.8849 H         1 <0>         0.0772
     56 H15         0.5814   -1.3668   -6.4764 H         1 <0>         0.0844
     57 H16         0.1622    0.4177   -8.1725 H         1 <0>         0.0921
     58 H17         0.7614    1.1053   -6.6400 H         1 <0>         0.0917
     59 H18         0.9786    2.0921   -9.6179 H         1 <0>         0.1302
     60 H19         6.3504    3.2333   -9.9469 H         1 <0>         0.1844
     61 H20         1.2475    1.5522  -11.6491 H         1 <0>         0.1445
     62 H21        -0.5253    2.0085  -13.2938 H         1 <0>         0.1457
     63 H22         1.3395    5.7192  -14.2832 H         1 <0>         0.1457
     64 H23         3.1096    5.2736  -12.6326 H         1 <0>         0.1436
     65 H24         5.5989    1.4741   -7.8432 H         1 <0>         0.0860
     66 H25         4.3969    2.6055   -7.1701 H         1 <0>         0.0777
     67 H26         3.1992    1.1378   -5.6983 H         1 <0>         0.0732
     68 H27         4.5160   -0.0273   -5.9739 H         1 <0>         0.1011
     69 H28         5.0734   -0.7739   -8.2782 H         1 <0>         0.0850
     70 H29         3.3931   -1.3364   -8.4470 H         1 <0>         0.0823
     71 H30         2.0799   -0.7574  -10.4065 H         1 <0>         0.1253
     72 H31         2.1170   -0.1580  -12.7941 H         1 <0>         0.1274
     73 H32         6.1533    1.1730  -12.3938 H         1 <0>         0.1285
     74 H33         6.1092    0.5817  -10.0042 H         1 <0>         0.1287
@<TRIPOS>BOND
     1    1    2 1
     2    1   42 1
     3    1   43 1
     4    1   44 1
     5    2    3 1
     6    2    4 1
     7    2    5 1
     8    3   45 1
     9    3   46 1
    10    3   47 1
    11    4   48 1
    12    4   49 1
    13    4   50 1
    14    5   10 ar
    15    5    6 ar
    16    6    7 ar
    17    6   51 1
    18    7    8 ar
    19    7   52 1
    20    8    9 ar
    21    8   11 1
    22    9   10 ar
    23    9   53 1
    24   10   54 1
    25   11   12 2
    26   11   13 2
    27   11   14 1
    28   14   33 1
    29   14   15 1
    30   15   16 1
    31   15   55 1
    32   15   56 1
    33   16   17 1
    34   16   57 1
    35   16   58 1
    36   17   32 1
    37   17   18 2
    38   18   19 1
    39   18   59 1
    40   19   23 1
    41   19   20 2
    42   20   21 1
    43   20   31 1
    44   21   22 2
    45   21   60 1
    46   22   23 1
    47   23   24 1
    48   24   29 ar
    49   24   25 ar
    50   25   26 ar
    51   25   61 1
    52   26   27 ar
    53   26   62 1
    54   27   28 ar
    55   27   30 1
    56   28   29 ar
    57   28   63 1
    58   29   64 1
    59   31   32 1
    60   31   65 1
    61   31   66 1
    62   32   33 1
    63   32   34 1
    64   33   67 1
    65   33   68 1
    66   34   35 1
    67   34   69 1
    68   34   70 1
    69   35   40 ar
    70   35   36 ar
    71   36   37 ar
    72   36   71 1
    73   37   38 ar
    74   37   72 1
    75   38   39 ar
    76   38   41 1
    77   39   40 ar
    78   39   73 1
    79   40   74 1
@<TRIPOS>MOLECULE
CHEMBL195962
   69    72     0     0     0
SMALL
USER_CHARGES

@<TRIPOS>ATOM
      1 C1         -2.3456   -6.0627   -0.9510 C.3       1 <0>        -0.1033
      2 C2         -3.2950   -6.8927   -0.1261 C.2       1 <0>         0.1566
      3 C3         -4.4528   -6.2664    0.5300 C.ar      1 <0>        -0.0554
      4 C4         -4.8871   -4.9847    0.2269 C.ar      1 <0>        -0.1074
      5 C5         -5.9859   -4.4626    0.8971 C.ar      1 <0>         0.1799
      6 C6         -6.6499   -5.2132    1.8664 C.ar      1 <0>        -0.1057
      7 C7         -6.2302   -6.4897    2.1754 C.ar      1 <0>        -0.0264
      8 C8         -5.1349   -7.0268    1.5110 C.ar      1 <0>        -0.1649
      9 C9         -4.6257   -8.3849    1.7684 C.2       1 <0>         0.4860
     10 O1         -4.7898   -8.9325    2.8421 O.2       1 <0>        -0.4341
     11 O2         -3.9681   -8.9952    0.7574 O.3       1 <0>        -0.1622
     12 N1         -3.1034   -8.1677    0.0089 N.2       1 <0>        -0.2546
     13 N2         -6.4292   -3.1741    0.5978 N.am      1 <0>        -0.6793
     14 C10        -7.7479   -2.8962    0.6066 C.2       1 <0>         0.5030
     15 O3         -8.5437   -3.7422    0.9557 O.2       1 <0>        -0.4998
     16 C11        -8.2338   -1.5341    0.1827 C.3       1 <0>         0.1362
     17 C12        -8.9231   -0.8481    1.3639 C.3       1 <0>        -0.1022
     18 C13        -9.5510    0.4660    0.8949 C.3       1 <0>        -0.0833
     19 C14        -8.4455    1.4468    0.4991 C.3       1 <0>        -0.1181
     20 C15        -9.0734    2.7609    0.0302 C.3       1 <0>        -0.1209
     21 C16        -9.9062    3.3616    1.1644 C.3       1 <0>        -0.1215
     22 C17       -11.0117    2.3807    1.5602 C.3       1 <0>        -0.1191
     23 C18       -10.3838    1.0667    2.0291 C.3       1 <0>        -0.1163
     24 C19        -9.2274   -1.6833   -0.9711 C.3       1 <0>        -0.1368
     25 C20        -8.4703   -2.0302   -2.2546 C.3       1 <0>        -0.0149
     26 C21        -7.7111   -0.7968   -2.7480 C.3       1 <0>        -0.1521
     27 C22        -7.4784   -3.1603   -1.9720 C.3       1 <0>        -0.1612
     28 C23        -9.4492   -2.4735   -3.3111 C.ar      1 <0>        -0.0650
     29 C24       -10.8015   -2.5081   -3.0295 C.ar      1 <0>        -0.1432
     30 C25       -11.7010   -2.9148   -3.9999 C.ar      1 <0>         0.0969
     31 C26       -11.2471   -3.2879   -5.2538 C.ar      1 <0>        -0.1417
     32 C27        -9.8958   -3.2542   -5.5380 C.ar      1 <0>        -0.1122
     33 C28        -8.9937   -2.8414   -4.5683 C.ar      1 <0>         0.0996
     34 O4         -7.6640   -2.8024   -4.8485 O.3       1 <0>        -0.4860
     35 F1        -13.0230   -2.9482   -3.7232 F         1 <0>        -0.1360
     36 O5         -7.1226   -0.7438   -0.2448 O.3       1 <0>        -0.5317
     37 H1         -1.5612   -6.7023   -1.3556 H         1 <0>         0.0943
     38 H2         -2.8906   -5.5938   -1.7703 H         1 <0>         0.0992
     39 H3         -1.8982   -5.2915   -0.3239 H         1 <0>         0.0987
     40 H4         -4.3764   -4.3987   -0.5228 H         1 <0>         0.1501
     41 H5         -7.5006   -4.7907    2.3803 H         1 <0>         0.1553
     42 H6         -6.7482   -7.0666    2.9273 H         1 <0>         0.1504
     43 H7         -5.7883   -2.4783    0.3834 H         1 <0>         0.4151
     44 H8         -9.7005   -1.5012    1.7601 H         1 <0>         0.0876
     45 H9         -8.1893   -0.6423    2.1432 H         1 <0>         0.0776
     46 H10       -10.1927    0.2754    0.0346 H         1 <0>         0.0764
     47 H11        -7.8038    1.6375    1.3594 H         1 <0>         0.0566
     48 H12        -7.8522    1.0189   -0.3089 H         1 <0>         0.0950
     49 H13        -8.2858    3.4597   -0.2518 H         1 <0>         0.0591
     50 H14        -9.7151    2.5702   -0.8301 H         1 <0>         0.0579
     51 H15        -9.2645    3.5522    2.0247 H         1 <0>         0.0598
     52 H16       -10.3535    4.2977    0.8303 H         1 <0>         0.0582
     53 H17       -11.6050    2.8087    2.3682 H         1 <0>         0.0605
     54 H18       -11.6534    2.1901    0.6999 H         1 <0>         0.0606
     55 H19       -11.1714    0.3679    2.3111 H         1 <0>         0.0607
     56 H20        -9.7421    1.2573    2.8894 H         1 <0>         0.0619
     57 H21        -9.9352   -2.4795   -0.7404 H         1 <0>         0.0889
     58 H22        -9.7670   -0.7464   -1.1094 H         1 <0>         0.1006
     59 H23        -6.8734   -0.5947   -2.0805 H         1 <0>         0.0781
     60 H24        -7.3372   -0.9793   -3.7554 H         1 <0>         0.0725
     61 H25        -8.3820    0.0622   -2.7595 H         1 <0>         0.0575
     62 H26        -7.9342   -3.8831   -1.2953 H         1 <0>         0.0654
     63 H27        -7.2143   -3.6543   -2.9071 H         1 <0>         0.0654
     64 H28        -6.5799   -2.7486   -1.5122 H         1 <0>         0.0587
     65 H29       -11.1568   -2.2180   -2.0517 H         1 <0>         0.1434
     66 H30       -11.9499   -3.6057   -6.0098 H         1 <0>         0.1404
     67 H31        -9.5420   -3.5456   -6.5160 H         1 <0>         0.1402
     68 H32        -7.1970   -3.6268   -4.6551 H         1 <0>         0.3856
     69 H33        -6.4289   -1.2490   -0.6905 H         1 <0>         0.3657
@<TRIPOS>BOND
     1    1    2 1
     2    1   37 1
     3    1   38 1
     4    1   39 1
     5    2   12 2
     6    2    3 1
     7    3    8 ar
     8    3    4 ar
     9    4    5 ar
    10    4   40 1
    11    5    6 ar
    12    5   13 1
    13    6    7 ar
    14    6   41 1
    15    7    8 ar
    16    7   42 1
    17    8    9 1
    18    9   10 2
    19    9   11 1
    20   11   12 1
    21   13   14 am
    22   13   43 1
    23   14   15 2
    24   14   16 1
    25   16   17 1
    26   16   24 1
    27   16   36 1
    28   17   18 1
    29   17   44 1
    30   17   45 1
    31   18   23 1
    32   18   19 1
    33   18   46 1
    34   19   20 1
    35   19   47 1
    36   19   48 1
    37   20   21 1
    38   20   49 1
    39   20   50 1
    40   21   22 1
    41   21   51 1
    42   21   52 1
    43   22   23 1
    44   22   53 1
    45   22   54 1
    46   23   55 1
    47   23   56 1
    48   24   25 1
    49   24   57 1
    50   24   58 1
    51   25   26 1
    52   25   27 1
    53   25   28 1
    54   26   59 1
    55   26   60 1
    56   26   61 1
    57   27   62 1
    58   27   63 1
    59   27   64 1
    60   28   33 ar
    61   28   29 ar
    62   29   30 ar
    63   29   65 1
    64   30   31 ar
    65   30   35 1
    66   31   32 ar
    67   31   66 1
    68   32   33 ar
    69   32   67 1
    70   33   34 1
    71   34   68 1
    72   36   69 1
@<TRIPOS>MOLECULE
CHEMBL195962__1
   69    72     0     0     0
SMALL
USER_CHARGES

@<TRIPOS>ATOM
      1 C1         -2.5133   -4.4365   -2.9676 C.3       1 <0>        -0.1040
      2 C2         -1.7569   -4.3529   -1.6669 C.2       1 <0>         0.1601
      3 C3         -2.1018   -3.3273   -0.6707 C.ar      1 <0>        -0.0544
      4 C4         -3.2673   -2.5785   -0.7341 C.ar      1 <0>        -0.0887
      5 C5         -3.5163   -1.6237    0.2432 C.ar      1 <0>         0.1812
      6 C6         -2.6080   -1.4141    1.2800 C.ar      1 <0>        -0.1341
      7 C7         -1.4468   -2.1535    1.3565 C.ar      1 <0>        -0.0232
      8 C8         -1.1856   -3.1146    0.3882 C.ar      1 <0>        -0.1707
      9 C9          0.0225   -3.9575    0.3981 C.2       1 <0>         0.4870
     10 O1          1.0535   -3.5847    0.9247 O.2       1 <0>        -0.4372
     11 O2         -0.0669   -5.1643   -0.2043 O.3       1 <0>        -0.1631
     12 N1         -0.7985   -5.1875   -1.4113 N.2       1 <0>        -0.2559
     13 N2         -4.6867   -0.8664    0.1867 N.am      1 <0>        -0.6641
     14 C10        -5.8078   -1.3971   -0.3405 C.2       1 <0>         0.4941
     15 O3         -5.8272   -2.5621   -0.6768 O.2       1 <0>        -0.5031
     16 C11        -7.0373   -0.5427   -0.5122 C.3       1 <0>         0.1366
     17 C12        -6.9494    0.2171   -1.8372 C.3       1 <0>        -0.1196
     18 C13        -5.6293    0.9884   -1.8963 C.3       1 <0>        -0.0990
     19 C14        -5.6659    2.1398   -0.8894 C.3       1 <0>        -0.1203
     20 C15        -4.3458    2.9110   -0.9484 C.3       1 <0>        -0.1225
     21 C16        -4.1456    3.4721   -2.3577 C.3       1 <0>        -0.1210
     22 C17        -4.1091    2.3208   -3.3646 C.3       1 <0>        -0.1192
     23 C18        -5.4291    1.5495   -3.3056 C.3       1 <0>        -0.1140
     24 C19        -8.2810   -1.4337   -0.5167 C.3       1 <0>        -0.1339
     25 C20        -9.5129   -0.5884   -0.8466 C.3       1 <0>        -0.0081
     26 C21        -9.3917    0.7767   -0.1662 C.3       1 <0>        -0.1436
     27 C22        -9.6089   -0.3964   -2.3615 C.3       1 <0>        -0.1746
     28 C23       -10.7509   -1.2893   -0.3496 C.ar      1 <0>        -0.0646
     29 C24       -10.6440   -2.5059    0.2966 C.ar      1 <0>        -0.1476
     30 C25       -11.7810   -3.1499    0.7537 C.ar      1 <0>         0.0948
     31 C26       -13.0269   -2.5760    0.5637 C.ar      1 <0>        -0.1431
     32 C27       -13.1366   -1.3599   -0.0819 C.ar      1 <0>        -0.1133
     33 C28       -11.9975   -0.7107   -0.5354 C.ar      1 <0>         0.1025
     34 O4        -12.1036    0.4889   -1.1660 O.3       1 <0>        -0.4869
     35 F1        -11.6751   -4.3394    1.3853 F         1 <0>        -0.1372
     36 O5         -7.1236    0.3901    0.5670 O.3       1 <0>        -0.5323
     37 H1         -2.1173   -5.2569   -3.5661 H         1 <0>         0.0941
     38 H2         -3.5694   -4.6127   -2.7631 H         1 <0>         0.1014
     39 H3         -2.4003   -3.5003   -3.5144 H         1 <0>         0.0971
     40 H4         -3.9743   -2.7365   -1.5351 H         1 <0>         0.1590
     41 H5         -2.8158   -0.6652    2.0300 H         1 <0>         0.1450
     42 H6         -0.7466   -1.9868    2.1617 H         1 <0>         0.1511
     43 H7         -4.6935    0.0419    0.5269 H         1 <0>         0.4225
     44 H8         -6.9943   -0.4902   -2.6653 H         1 <0>         0.0876
     45 H9         -7.7823    0.9163   -1.9111 H         1 <0>         0.1136
     46 H10        -4.8055    0.3179   -1.6518 H         1 <0>         0.0705
     47 H11        -6.4897    2.8103   -1.1339 H         1 <0>         0.0639
     48 H12        -5.8085    1.7400    0.1146 H         1 <0>         0.0873
     49 H13        -4.3718    3.7313   -0.2311 H         1 <0>         0.0618
     50 H14        -3.5220    2.2405   -0.7039 H         1 <0>         0.0557
     51 H15        -4.9694    4.1427   -2.6022 H         1 <0>         0.0618
     52 H16        -3.2051    4.0216   -2.3998 H         1 <0>         0.0589
     53 H17        -3.9664    2.7205   -4.3686 H         1 <0>         0.0615
     54 H18        -3.2852    1.6502   -3.1201 H         1 <0>         0.0587
     55 H19        -5.4031    0.7293   -4.0229 H         1 <0>         0.0600
     56 H20        -6.2529    2.2200   -3.5501 H         1 <0>         0.0646
     57 H21        -8.1652   -2.2155   -1.2675 H         1 <0>         0.0919
     58 H22        -8.4053   -1.8891    0.4658 H         1 <0>         0.0787
     59 H23        -8.5633    1.3305   -0.6078 H         1 <0>         0.0804
     60 H24       -10.3173    1.3353   -0.3052 H         1 <0>         0.0648
     61 H25        -9.2084    0.6366    0.8991 H         1 <0>         0.0578
     62 H26        -9.8324   -1.3522   -2.8354 H         1 <0>         0.0558
     63 H27       -10.4024    0.3157   -2.5879 H         1 <0>         0.0635
     64 H28        -8.6603   -0.0161   -2.7404 H         1 <0>         0.0869
     65 H29        -9.6730   -2.9549    0.4447 H         1 <0>         0.1434
     66 H30       -13.9132   -3.0798    0.9202 H         1 <0>         0.1394
     67 H31       -14.1085   -0.9127   -0.2302 H         1 <0>         0.1394
     68 H32       -12.2111    0.4212   -2.1246 H         1 <0>         0.3875
     69 H33        -7.1823   -0.0223    1.4396 H         1 <0>         0.3773
@<TRIPOS>BOND
     1    1    2 1
     2    1   37 1
     3    1   38 1
     4    1   39 1
     5    2   12 2
     6    2    3 1
     7    3    8 ar
     8    3    4 ar
     9    4    5 ar
    10    4   40 1
    11    5    6 ar
    12    5   13 1
    13    6    7 ar
    14    6   41 1
    15    7    8 ar
    16    7   42 1
    17    8    9 1
    18    9   10 2
    19    9   11 1
    20   11   12 1
    21   13   14 am
    22   13   43 1
    23   14   15 2
    24   14   16 1
    25   16   17 1
    26   16   24 1
    27   16   36 1
    28   17   18 1
    29   17   44 1
    30   17   45 1
    31   18   23 1
    32   18   19 1
    33   18   46 1
    34   19   20 1
    35   19   47 1
    36   19   48 1
    37   20   21 1
    38   20   49 1
    39   20   50 1
    40   21   22 1
    41   21   51 1
    42   21   52 1
    43   22   23 1
    44   22   53 1
    45   22   54 1
    46   23   55 1
    47   23   56 1
    48   24   25 1
    49   24   57 1
    50   24   58 1
    51   25   26 1
    52   25   27 1
    53   25   28 1
    54   26   59 1
    55   26   60 1
    56   26   61 1
    57   27   62 1
    58   27   63 1
    59   27   64 1
    60   28   33 ar
    61   28   29 ar
    62   29   30 ar
    63   29   65 1
    64   30   31 ar
    65   30   35 1
    66   31   32 ar
    67   31   66 1
    68   32   33 ar
    69   32   67 1
    70   33   34 1
    71   34   68 1
    72   36   69 1
@<TRIPOS>MOLECULE
CHEMBL400047
   79    84     0     0     0
SMALL
USER_CHARGES

@<TRIPOS>ATOM
      1 C1         -2.7499   -2.8546   -0.7162 C.3       1 <0>        -0.1598
      2 C2         -1.3295   -2.4795   -0.2888 C.3       1 <0>         0.1028
      3 O1         -0.4920   -2.3923   -1.4435 O.3       1 <0>        -0.7553
      4 P1          1.0717   -2.0168   -1.3662 P.3       1 <0>         2.4557
      5 O2          1.7572   -2.9467   -0.4411 O.2       1 <0>        -1.0282
      6 C3          1.8089   -2.1542   -3.0179 C.ar      1 <0>        -0.7153
      7 C4          1.0539   -2.6282   -4.0745 C.ar      1 <0>        -0.0539
      8 C5          1.6157   -2.7329   -5.3332 C.ar      1 <0>        -0.1431
      9 C6          2.9322   -2.3632   -5.5354 C.ar      1 <0>        -0.0079
     10 C7          3.6869   -1.8884   -4.4791 C.ar      1 <0>        -0.1335
     11 C8          3.1239   -1.7796   -3.2213 C.ar      1 <0>        -0.0349
     12 C9          3.5449   -2.4783   -6.9075 C.3       1 <0>        -0.0343
     13 H1          3.6101   -1.4863   -7.3545 H         1 <0>         0.1084
     14 C10         4.9578   -3.0683   -6.7810 C.3       1 <0>        -0.0985
     15 C11         4.8021   -4.5179   -6.3570 C.3       1 <0>        -0.0465
     16 C12         4.1648   -5.2764   -7.5523 C.3       1 <0>        -0.0799
     17 H2          4.6895   -5.0438   -8.4790 H         1 <0>         0.0826
     18 C13         4.3926   -6.7418   -7.1569 C.3       1 <0>        -0.1130
     19 C14         5.8309   -6.7288   -6.5709 C.3       1 <0>        -0.1346
     20 C15         6.0913   -5.2828   -6.0995 C.3       1 <0>         0.1457
     21 C16         7.2444   -4.6872   -6.8737 C.2       1 <0>        -0.1389
     22 C17         7.3230   -4.4872   -8.1659 C.2       1 <0>        -0.1694
     23 C18         8.2961   -4.3704   -5.8152 C.3       1 <0>        -0.1282
     24 C19         7.8768   -5.2952   -4.6440 C.3       1 <0>         0.0448
     25 O3          6.4323   -5.2746   -4.7088 O.3       1 <0>        -0.3506
     26 C20         2.7090   -4.8383   -7.6390 C.3       1 <0>        -0.0496
     27 H3          2.2065   -5.1001   -6.7079 H         1 <0>         0.0956
     28 C21         2.6648   -3.3575   -7.7733 C.2       1 <0>        -0.0512
     29 C22         1.8638   -2.7514   -8.6485 C.2       1 <0>        -0.1243
     30 C23         1.8524   -1.2442   -8.7655 C.3       1 <0>        -0.0825
     31 C24         1.8059   -0.8689  -10.2497 C.3       1 <0>        -0.1655
     32 C25         0.6976   -1.6198  -10.9369 C.2       1 <0>         0.3865
     33 O4          0.0669   -1.0742  -11.8201 O.2       1 <0>        -0.4683
     34 C26         0.3779   -2.9404  -10.5762 C.2       1 <0>        -0.2442
     35 C27         0.9551   -3.5178   -9.5008 C.2       1 <0>         0.0225
     36 C28         0.6850   -4.9557   -9.1307 C.3       1 <0>        -0.0956
     37 C29         2.0284   -5.5650   -8.7863 C.3       1 <0>        -0.1111
     38 C30         3.8920   -4.6055   -5.1302 C.3       1 <0>        -0.1598
     39 O5          1.2354   -0.5078   -0.8293 O.3       1 <0>        -0.7539
     40 C31         0.8488   -0.1033    0.4856 C.3       1 <0>         0.1019
     41 C32         1.1391    1.3879    0.6665 C.3       1 <0>        -0.1596
     42 H4         -3.1395   -2.0923   -1.3909 H         1 <0>         0.0657
     43 H5         -2.7334   -3.8175   -1.2267 H         1 <0>         0.0697
     44 H6         -3.3886   -2.9211    0.1645 H         1 <0>         0.0786
     45 H7         -1.3459   -1.5166    0.2217 H         1 <0>         0.0586
     46 H8         -0.9398   -3.2418    0.3858 H         1 <0>         0.0777
     47 H9          0.0253   -2.9170   -3.9165 H         1 <0>         0.1325
     48 H10         1.0261   -3.1039   -6.1585 H         1 <0>         0.1297
     49 H11         4.7156   -1.5998   -4.6370 H         1 <0>         0.1311
     50 H12         3.7123   -1.4051   -2.3967 H         1 <0>         0.1288
     51 H13         5.4696   -3.0154   -7.7419 H         1 <0>         0.0791
     52 H14         5.5231   -2.5197   -6.0276 H         1 <0>         0.0751
     53 H15         3.6716   -7.0533   -6.4011 H         1 <0>         0.0726
     54 H16         4.3391   -7.3896   -8.0319 H         1 <0>         0.0703
     55 H17         5.8979   -7.4157   -5.7272 H         1 <0>         0.0769
     56 H18         6.5513   -7.0077   -7.3398 H         1 <0>         0.0712
     57 H19         6.4970   -4.7602   -8.8059 H         1 <0>         0.1075
     58 H20         8.2139   -4.0493   -8.5913 H         1 <0>         0.1077
     59 H21         9.2941   -4.6251   -6.1720 H         1 <0>         0.0847
     60 H22         8.2448   -3.3226   -5.5193 H         1 <0>         0.0869
     61 H23         8.2546   -6.3060   -4.7974 H         1 <0>         0.0628
     62 H24         8.2251   -4.8932   -3.6926 H         1 <0>         0.0954
     63 H25         0.9736   -0.8446   -8.2595 H         1 <0>         0.0817
     64 H26         2.7558   -0.8353   -8.3129 H         1 <0>         0.0910
     65 H27         1.6310    0.2026  -10.3465 H         1 <0>         0.0953
     66 H28         2.7578   -1.1218  -10.7167 H         1 <0>         0.0998
     67 H29        -0.3355   -3.4982  -11.1647 H         1 <0>         0.1361
     68 H30         0.0056   -4.9967   -8.2793 H         1 <0>         0.0906
     69 H31         0.2464   -5.4796   -9.9800 H         1 <0>         0.0873
     70 H32         2.6912   -5.5623   -9.6517 H         1 <0>         0.0728
     71 H33         1.8371   -6.5963   -8.4901 H         1 <0>         0.0750
     72 H34         2.8699   -4.3588   -5.4176 H         1 <0>         0.0775
     73 H35         3.9219   -5.6178   -4.7271 H         1 <0>         0.0545
     74 H36         4.2359   -3.9022   -4.3717 H         1 <0>         0.0712
     75 H37        -0.2171   -0.2852    0.6230 H         1 <0>         0.0583
     76 H38         1.4129   -0.6753    1.2223 H         1 <0>         0.0774
     77 H39         2.2050    1.5698    0.5291 H         1 <0>         0.0696
     78 H40         0.5750    1.9599   -0.0702 H         1 <0>         0.0657
     79 H41         0.8442    1.6964    1.6695 H         1 <0>         0.0784
@<TRIPOS>BOND
     1    1    2 1
     2    1   42 1
     3    1   43 1
     4    1   44 1
     5    2    3 1
     6    2   45 1
     7    2   46 1
     8    3    4 1
     9    4    5 2
    10    4    6 1
    11    4   39 1
    12    6   11 ar
    13    6    7 ar
    14    7    8 ar
    15    7   47 1
    16    8    9 ar
    17    8   48 1
    18    9   10 ar
    19    9   12 1
    20   10   11 ar
    21   10   49 1
    22   11   50 1
    23   12   13 1
    24   12   28 1
    25   12   14 1
    26   14   15 1
    27   14   51 1
    28   14   52 1
    29   15   20 1
    30   15   16 1
    31   15   38 1
    32   16   17 1
    33   16   18 1
    34   16   26 1
    35   18   19 1
    36   18   53 1
    37   18   54 1
    38   19   20 1
    39   19   55 1
    40   19   56 1
    41   20   25 1
    42   20   21 1
    43   21   22 2
    44   21   23 1
    45   22   57 1
    46   22   58 1
    47   23   24 1
    48   23   59 1
    49   23   60 1
    50   24   25 1
    51   24   61 1
    52   24   62 1
    53   26   27 1
    54   26   37 1
    55   26   28 1
    56   28   29 2
    57   29   35 1
    58   29   30 1
    59   30   31 1
    60   30   63 1
    61   30   64 1
    62   31   32 1
    63   31   65 1
    64   31   66 1
    65   32   33 2
    66   32   34 1
    67   34   35 2
    68   34   67 1
    69   35   36 1
    70   36   37 1
    71   36   68 1
    72   36   69 1
    73   37   70 1
    74   37   71 1
    75   38   72 1
    76   38   73 1
    77   38   74 1
    78   39   40 1
    79   40   41 1
    80   40   75 1
    81   40   76 1
    82   41   77 1
    83   41   78 1
    84   41   79 1
@<TRIPOS>MOLECULE
CHEMBL572212
   64    68     0     0     0
SMALL
USER_CHARGES

@<TRIPOS>ATOM
      1 C1         -1.5960    1.8053   -0.7842 C.3       1 <0>        -0.1641
      2 C2         -1.1738    0.4154   -0.3038 C.3       1 <0>        -0.0245
      3 C3         -2.2337   -0.5936   -0.7726 C.3       1 <0>         0.0875
      4 N1         -2.9463   -1.3550    0.2615 N.pl3     1 <0>        -0.4069
      5 C4         -3.9359   -2.2704    0.1933 C.cat     1 <0>         0.2871
      6 N2         -4.2514   -2.6594    1.3977 N.pl3     1 <0>        -0.4678
      7 C5         -3.4802   -2.0186    2.2953 C.2       1 <0>         0.0818
      8 C6         -2.6313   -1.1800    1.5872 C.2       1 <0>         0.1099
      9 C7         -1.5782   -0.2630    2.0255 C.2       1 <0>        -0.1394
     10 C8         -0.8981    0.4952    1.1823 C.2       1 <0>        -0.0274
     11 C9          0.1979    1.4125    1.6670 C.3       1 <0>        -0.0900
     12 C10         1.4816    1.0767    0.8978 C.3       1 <0>        -0.1196
     13 C11         1.2018    1.1230   -0.6051 C.3       1 <0>        -0.1237
     14 C12         0.1553    0.0706   -0.9766 C.3       1 <0>        -0.1027
     15 H1          0.4901   -0.9101   -0.6385 H         1 <0>         0.0874
     16 C13        -0.0315    0.0506   -2.4950 C.3       1 <0>         0.1383
     17 C14         0.0588    1.4779   -3.0387 C.3       1 <0>        -0.1736
     18 C15         1.0628   -0.8081   -3.1322 C.3       1 <0>        -0.1147
     19 C16         0.9724   -2.2354   -2.5885 C.3       1 <0>        -0.1216
     20 C17         2.0667   -3.0941   -3.2257 C.3       1 <0>        -0.1191
     21 C18         1.8799   -3.1141   -4.7441 C.3       1 <0>        -0.1223
     22 C19         1.9702   -1.6868   -5.2879 C.3       1 <0>        -0.1234
     23 C20         0.8760   -0.8281   -4.6506 C.3       1 <0>        -0.1120
     24 O1         -1.3124   -0.4990   -2.8102 O.3       1 <0>        -0.5524
     25 C21        -3.5288   -2.1786    3.7668 C.ar      1 <0>        -0.0732
     26 C22        -3.5078   -1.0556    4.5939 C.ar      1 <0>        -0.0517
     27 C23        -3.5533   -1.2099    5.9640 C.ar      1 <0>        -0.1476
     28 C24        -3.6192   -2.4779    6.5188 C.ar      1 <0>         0.1354
     29 C25        -3.6398   -3.5967    5.7015 C.ar      1 <0>        -0.1476
     30 C26        -3.6015   -3.4527    4.3302 C.ar      1 <0>        -0.0648
     31 F1         -3.6631   -2.6239    7.8612 F         1 <0>        -0.1234
     32 H2         -0.7753    2.5066   -0.6332 H         1 <0>         0.0830
     33 H3         -1.8472    1.7627   -1.8440 H         1 <0>         0.0920
     34 H4         -2.4661    2.1368   -0.2176 H         1 <0>         0.0599
     35 H5         -2.9753   -0.0512   -1.3590 H         1 <0>         0.1224
     36 H6         -1.7454   -1.3072   -1.4363 H         1 <0>         0.1446
     37 H7         -4.3954   -2.6255   -0.7173 H         1 <0>         0.2609
     38 H8         -1.3621   -0.1879    3.0810 H         1 <0>         0.1502
     39 H9         -0.0816    2.4494    1.4805 H         1 <0>         0.0933
     40 H10         0.3587    1.2609    2.7343 H         1 <0>         0.0869
     41 H11         2.2547    1.8038    1.1461 H         1 <0>         0.0820
     42 H12         1.8199    0.0780    1.1739 H         1 <0>         0.0687
     43 H13         0.8309    2.1122   -0.8735 H         1 <0>         0.0824
     44 H14         2.1241    0.9242   -1.1509 H         1 <0>         0.0785
     45 H15         1.1060    1.7545   -3.1611 H         1 <0>         0.0737
     46 H16        -0.4463    1.5319   -4.0031 H         1 <0>         0.0715
     47 H17        -0.4189    2.1640   -2.3394 H         1 <0>         0.0861
     48 H18         2.0398   -0.3889   -2.8918 H         1 <0>         0.0884
     49 H19         1.1055   -2.2212   -1.5067 H         1 <0>         0.0657
     50 H20        -0.0046   -2.6546   -2.8289 H         1 <0>         0.0558
     51 H21         3.0437   -2.6749   -2.9853 H         1 <0>         0.0660
     52 H22         2.0023   -4.1109   -2.8383 H         1 <0>         0.0640
     53 H23         2.6595   -3.7258   -5.1981 H         1 <0>         0.0655
     54 H24         0.9029   -3.5333   -4.9845 H         1 <0>         0.0609
     55 H25         2.9473   -1.2676   -5.0475 H         1 <0>         0.0634
     56 H26         1.8372   -1.7010   -6.3696 H         1 <0>         0.0662
     57 H27        -0.1010   -1.2473   -4.8911 H         1 <0>         0.0651
     58 H28         0.9403    0.1887   -5.0380 H         1 <0>         0.0689
     59 H29        -1.3216   -1.4639   -2.8734 H         1 <0>         0.3756
     60 H30        -3.4557   -0.0669    4.1624 H         1 <0>         0.1425
     61 H31        -3.5371   -0.3411    6.6052 H         1 <0>         0.1514
     62 H32        -3.6905   -4.5829    6.1388 H         1 <0>         0.1502
     63 H33        -3.6224   -4.3251    3.6938 H         1 <0>         0.1368
     64 H34        -4.9373   -3.3105    1.6133 H         1 <0>         0.4633
@<TRIPOS>BOND
     1    1    2 1
     2    1   32 1
     3    1   33 1
     4    1   34 1
     5    2   10 1
     6    2   14 1
     7    2    3 1
     8    3    4 1
     9    3   35 1
    10    3   36 1
    11    4    8 1
    12    4    5 1
    13    5    6 2
    14    5   37 1
    15    6    7 1
    16    6   64 1
    17    7    8 2
    18    7   25 1
    19    8    9 1
    20    9   10 2
    21    9   38 1
    22   10   11 1
    23   11   12 1
    24   11   39 1
    25   11   40 1
    26   12   13 1
    27   12   41 1
    28   12   42 1
    29   13   14 1
    30   13   43 1
    31   13   44 1
    32   14   15 1
    33   14   16 1
    34   16   17 1
    35   16   18 1
    36   16   24 1
    37   17   45 1
    38   17   46 1
    39   17   47 1
    40   18   23 1
    41   18   19 1
    42   18   48 1
    43   19   20 1
    44   19   49 1
    45   19   50 1
    46   20   21 1
    47   20   51 1
    48   20   52 1
    49   21   22 1
    50   21   53 1
    51   21   54 1
    52   22   23 1
    53   22   55 1
    54   22   56 1
    55   23   57 1
    56   23   58 1
    57   24   59 1
    58   25   30 ar
    59   25   26 ar
    60   26   27 ar
    61   26   60 1
    62   27   28 ar
    63   27   61 1
    64   28   29 ar
    65   28   31 1
    66   29   30 ar
    67   29   62 1
    68   30   63 1
@<TRIPOS>MOLECULE
CHEMBL572212__1
   63    67     0     0     0
SMALL
USER_CHARGES

@<TRIPOS>ATOM
      1 C1         -1.5960    1.8053   -0.7842 C.3       1 <0>        -0.1568
      2 C2         -1.1738    0.4154   -0.3038 C.3       1 <0>        -0.0086
      3 C3         -2.2337   -0.5936   -0.7726 C.3       1 <0>         0.1028
      4 N1         -2.9463   -1.3550    0.2615 N.pl3     1 <0>        -0.4514
      5 C4         -3.9359   -2.2704    0.1933 C.2       1 <0>         0.1966
      6 N2         -4.2514   -2.6594    1.3977 N.2       1 <0>        -0.4760
      7 C5         -3.4802   -2.0186    2.2953 C.2       1 <0>         0.0514
      8 C6         -2.6313   -1.1800    1.5872 C.2       1 <0>         0.0199
      9 C7         -1.5782   -0.2630    2.0255 C.2       1 <0>        -0.0892
     10 C8         -0.8981    0.4952    1.1823 C.2       1 <0>        -0.1003
     11 C9          0.1979    1.4125    1.6670 C.3       1 <0>        -0.0777
     12 C10         1.4816    1.0767    0.8978 C.3       1 <0>        -0.1171
     13 C11         1.2018    1.1230   -0.6051 C.3       1 <0>        -0.1185
     14 C12         0.1553    0.0706   -0.9766 C.3       1 <0>        -0.1005
     15 H1          0.4901   -0.9101   -0.6385 H         1 <0>         0.0818
     16 C13        -0.0315    0.0506   -2.4950 C.3       1 <0>         0.1391
     17 C14         0.0588    1.4779   -3.0387 C.3       1 <0>        -0.1700
     18 C15         1.0628   -0.8081   -3.1322 C.3       1 <0>        -0.1126
     19 C16         0.9724   -2.2354   -2.5885 C.3       1 <0>        -0.1235
     20 C17         2.0667   -3.0941   -3.2257 C.3       1 <0>        -0.1174
     21 C18         1.8799   -3.1141   -4.7441 C.3       1 <0>        -0.1215
     22 C19         1.9702   -1.6868   -5.2879 C.3       1 <0>        -0.1210
     23 C20         0.8760   -0.8281   -4.6506 C.3       1 <0>        -0.1121
     24 O1         -1.3124   -0.4990   -2.8102 O.3       1 <0>        -0.5503
     25 C21        -3.5288   -2.1786    3.7668 C.ar      1 <0>        -0.0050
     26 C22        -2.3572   -2.0934    4.5191 C.ar      1 <0>        -0.0836
     27 C23        -2.4078   -2.2432    5.8895 C.ar      1 <0>        -0.1513
     28 C24        -3.6197   -2.4785    6.5188 C.ar      1 <0>         0.0951
     29 C25        -4.7862   -2.5645    5.7759 C.ar      1 <0>        -0.1514
     30 C26        -4.7471   -2.4095    4.4058 C.ar      1 <0>        -0.0663
     31 F1         -3.6639   -2.6250    7.8611 F         1 <0>        -0.1403
     32 H2         -0.7753    2.5066   -0.6332 H         1 <0>         0.0709
     33 H3         -1.8472    1.7627   -1.8440 H         1 <0>         0.0817
     34 H4         -2.4661    2.1368   -0.2176 H         1 <0>         0.0538
     35 H5         -2.9753   -0.0512   -1.3590 H         1 <0>         0.0913
     36 H6         -1.7454   -1.3072   -1.4363 H         1 <0>         0.1154
     37 H7         -4.3954   -2.6255   -0.7173 H         1 <0>         0.2067
     38 H8         -1.3621   -0.1879    3.0810 H         1 <0>         0.1290
     39 H9         -0.0816    2.4494    1.4805 H         1 <0>         0.0784
     40 H10         0.3587    1.2609    2.7343 H         1 <0>         0.0754
     41 H11         2.2547    1.8038    1.1461 H         1 <0>         0.0704
     42 H12         1.8199    0.0780    1.1739 H         1 <0>         0.0643
     43 H13         0.8309    2.1122   -0.8735 H         1 <0>         0.0767
     44 H14         2.1241    0.9242   -1.1509 H         1 <0>         0.0680
     45 H15         1.1060    1.7545   -3.1611 H         1 <0>         0.0674
     46 H16        -0.4463    1.5319   -4.0031 H         1 <0>         0.0658
     47 H17        -0.4189    2.1640   -2.3394 H         1 <0>         0.0866
     48 H18         2.0398   -0.3889   -2.8918 H         1 <0>         0.0835
     49 H19         1.1055   -2.2212   -1.5067 H         1 <0>         0.0685
     50 H20        -0.0046   -2.6546   -2.8289 H         1 <0>         0.0585
     51 H21         3.0437   -2.6749   -2.9853 H         1 <0>         0.0631
     52 H22         2.0023   -4.1109   -2.8383 H         1 <0>         0.0631
     53 H23         2.6595   -3.7258   -5.1981 H         1 <0>         0.0619
     54 H24         0.9029   -3.5333   -4.9845 H         1 <0>         0.0613
     55 H25         2.9473   -1.2676   -5.0475 H         1 <0>         0.0609
     56 H26         1.8372   -1.7010   -6.3696 H         1 <0>         0.0626
     57 H27        -0.1010   -1.2473   -4.8911 H         1 <0>         0.0654
     58 H28         0.9403    0.1887   -5.0380 H         1 <0>         0.0662
     59 H29        -1.3216   -1.4639   -2.8734 H         1 <0>         0.3752
     60 H30        -1.4121   -1.9107    4.0295 H         1 <0>         0.1328
     61 H31        -1.5012   -2.1773    6.4728 H         1 <0>         0.1369
     62 H32        -5.7282   -2.7487    6.2710 H         1 <0>         0.1372
     63 H33        -5.6575   -2.4719    3.8281 H         1 <0>         0.1368
@<TRIPOS>BOND
     1    1    2 1
     2    1   32 1
     3    1   33 1
     4    1   34 1
     5    2   10 1
     6    2   14 1
     7    2    3 1
     8    3    4 1
     9    3   35 1
    10    3   36 1
    11    4    8 1
    12    4    5 1
    13    5    6 2
    14    5   37 1
    15    6    7 1
    16    7    8 2
    17    7   25 1
    18    8    9 1
    19    9   10 2
    20    9   38 1
    21   10   11 1
    22   11   12 1
    23   11   39 1
    24   11   40 1
    25   12   13 1
    26   12   41 1
    27   12   42 1
    28   13   14 1
    29   13   43 1
    30   13   44 1
    31   14   15 1
    32   14   16 1
    33   16   17 1
    34   16   18 1
    35   16   24 1
    36   17   45 1
    37   17   46 1
    38   17   47 1
    39   18   23 1
    40   18   19 1
    41   18   48 1
    42   19   20 1
    43   19   49 1
    44   19   50 1
    45   20   21 1
    46   20   51 1
    47   20   52 1
    48   21   22 1
    49   21   53 1
    50   21   54 1
    51   22   23 1
    52   22   55 1
    53   22   56 1
    54   23   57 1
    55   23   58 1
    56   24   59 1
    57   25   30 ar
    58   25   26 ar
    59   26   27 ar
    60   26   60 1
    61   27   28 ar
    62   27   61 1
    63   28   29 ar
    64   28   31 1
    65   29   30 ar
    66   29   62 1
    67   30   63 1
@<TRIPOS>MOLECULE
CHEMBL564332
   59    61     0     0     0
SMALL
USER_CHARGES

@<TRIPOS>ATOM
      1 C1         -0.7907    1.7574    0.1315 C.3       1 <0>        -0.1800
      2 C2         -0.5430    0.2477    0.1508 C.3       1 <0>         0.1074
      3 N1         -1.8203   -0.4584    0.0243 N.pl3     1 <0>        -0.9912
      4 C3         -2.3897   -0.7106   -1.3018 C.3       1 <0>         0.0936
      5 C4         -1.7903   -1.9948   -1.8784 C.3       1 <0>         0.0630
      6 C5         -2.3849   -2.2582   -3.2633 C.3       1 <0>         0.0955
      7 N2         -2.1053   -1.1180   -4.1397 N.am      1 <0>        -0.7301
      8 C6         -2.6348   -1.0744   -5.3783 C.2       1 <0>         0.6143
      9 O1         -3.3452   -1.9820   -5.7686 O.2       1 <0>        -0.5531
     10 C7         -2.3546    0.0678   -6.2563 C.2       1 <0>        -0.3747
     11 C8         -1.5476    1.1886   -5.9480 C.2       1 <0>         0.1185
     12 N3         -1.5435    1.9845   -6.9800 N.2       1 <0>        -0.2905
     13 N4         -2.3338    1.4305   -7.9927 N.pl3     1 <0>        -0.3474
     14 C9         -2.8278    0.2517   -7.5536 C.2       1 <0>         0.4486
     15 N5         -3.6485   -0.6064   -8.2565 N.pl3     1 <0>        -0.8244
     16 C10        -2.5688    1.9990   -9.2518 C.ar      1 <0>         0.1515
     17 C11        -2.7064    1.1848  -10.3681 C.ar      1 <0>        -0.1480
     18 C12        -2.9384    1.7481  -11.6076 C.ar      1 <0>        -0.0916
     19 C13        -3.0333    3.1215  -11.7377 C.ar      1 <0>        -0.1198
     20 C14        -2.8968    3.9351  -10.6279 C.ar      1 <0>        -0.0948
     21 C15        -2.6703    3.3774   -9.3848 C.ar      1 <0>        -0.1073
     22 C16        -2.1140   -3.1692   -0.9526 C.3       1 <0>         0.4805
     23 F1         -3.5001   -3.2670   -0.7906 F         1 <0>        -0.1393
     24 F2         -1.6253   -4.3538   -1.5138 F         1 <0>        -0.1713
     25 F3         -1.5124   -2.9605    0.2931 F         1 <0>        -0.1789
     26 O2         -0.3727   -1.8514   -1.9881 O.3       1 <0>        -0.5198
     27 S1         -2.6206   -0.9716    1.3802 S.o2      1 <0>         2.6903
     28 O3         -3.4551   -2.0484    0.9762 O.2       1 <0>        -0.9453
     29 O4         -1.6424   -1.1077    2.4020 O.2       1 <0>        -0.9420
     30 C17        -3.6914    0.3357    1.8792 C.ar      1 <0>        -0.6983
     31 C18        -3.2378    1.3036    2.7559 C.ar      1 <0>         0.0090
     32 C19        -4.0766    2.3297    3.1476 C.ar      1 <0>        -0.1739
     33 C20        -5.3718    2.3881    2.6616 C.ar      1 <0>         0.1578
     34 C21        -5.8250    1.4181    1.7837 C.ar      1 <0>        -0.1739
     35 C22        -4.9827    0.3959    1.3893 C.ar      1 <0>         0.0093
     36 F4         -6.1928    3.3904    3.0442 F         1 <0>        -0.1275
     37 H1          0.1597    2.2828    0.2256 H         1 <0>         0.0748
     38 H2         -1.2680    2.0353   -0.8082 H         1 <0>         0.0616
     39 H3         -1.4403    2.0296    0.9633 H         1 <0>         0.0551
     40 H4          0.1066   -0.0246   -0.6811 H         1 <0>         0.0938
     41 H5         -0.0657   -0.0302    1.0905 H         1 <0>         0.0989
     42 H6         -3.4710   -0.8200   -1.2181 H         1 <0>         0.1106
     43 H7         -2.1591    0.1260   -1.9613 H         1 <0>         0.1092
     44 H8         -1.9386   -3.1587   -3.6850 H         1 <0>         0.0978
     45 H9         -3.4630   -2.3935   -3.1760 H         1 <0>         0.1000
     46 H10        -1.5390   -0.3945   -3.8285 H         1 <0>         0.3954
     47 H11        -1.0253    1.3559   -5.0176 H         1 <0>         0.1917
     48 H12        -3.9517   -1.4318   -7.8469 H         1 <0>         0.4328
     49 H13        -3.9222   -0.3843   -9.1602 H         1 <0>         0.4047
     50 H14        -2.6316    0.1121  -10.2672 H         1 <0>         0.1295
     51 H15        -3.0455    1.1153  -12.4762 H         1 <0>         0.1360
     52 H16        -3.2141    3.5597  -12.7081 H         1 <0>         0.1325
     53 H17        -2.9711    5.0074  -10.7327 H         1 <0>         0.1355
     54 H18        -2.5682    4.0131   -8.5176 H         1 <0>         0.1367
     55 H19        -0.0942   -1.1241   -2.5612 H         1 <0>         0.3898
     56 H20        -2.2276    1.2577    3.1351 H         1 <0>         0.1501
     57 H21        -3.7221    3.0855    3.8327 H         1 <0>         0.1480
     58 H22        -6.8352    1.4624    1.4042 H         1 <0>         0.1479
     59 H23        -5.3346   -0.3583    0.7010 H         1 <0>         0.1511
@<TRIPOS>BOND
     1    1    2 1
     2    1   37 1
     3    1   38 1
     4    1   39 1
     5    2    3 1
     6    2   40 1
     7    2   41 1
     8    3    4 1
     9    3   27 1
    10    4    5 1
    11    4   42 1
    12    4   43 1
    13    5    6 1
    14    5   22 1
    15    5   26 1
    16    6    7 1
    17    6   44 1
    18    6   45 1
    19    7    8 am
    20    7   46 1
    21    8    9 2
    22    8   10 1
    23   10   14 2
    24   10   11 1
    25   11   12 2
    26   11   47 1
    27   12   13 1
    28   13   14 1
    29   13   16 1
    30   14   15 1
    31   15   48 1
    32   15   49 1
    33   16   21 ar
    34   16   17 ar
    35   17   18 ar
    36   17   50 1
    37   18   19 ar
    38   18   51 1
    39   19   20 ar
    40   19   52 1
    41   20   21 ar
    42   20   53 1
    43   21   54 1
    44   22   23 1
    45   22   24 1
    46   22   25 1
    47   26   55 1
    48   27   28 2
    49   27   29 2
    50   27   30 1
    51   30   35 ar
    52   30   31 ar
    53   31   32 ar
    54   31   56 1
    55   32   33 ar
    56   32   57 1
    57   33   34 ar
    58   33   36 1
    59   34   35 ar
    60   34   58 1
    61   35   59 1
@<TRIPOS>MOLECULE
CHEMBL564332__1
   59    61     0     0     0
SMALL
USER_CHARGES

@<TRIPOS>ATOM
      1 C1         -4.4483   -0.2780    1.0914 C.3       1 <0>        -0.1773
      2 C2         -4.3290   -1.1810   -0.1379 C.3       1 <0>         0.0927
      3 N1         -3.5642   -0.4901   -1.1790 N.pl3     1 <0>        -0.9974
      4 C3         -2.1010   -0.5625   -1.1829 C.3       1 <0>         0.0966
      5 C4         -1.6559   -1.8496   -1.8804 C.3       1 <0>         0.0609
      6 C5         -2.1660   -1.8506   -3.3228 C.3       1 <0>         0.0967
      7 N2         -1.7398   -3.0829   -3.9906 N.am      1 <0>        -0.7322
      8 C6         -2.0766   -3.3035   -5.2769 C.2       1 <0>         0.6085
      9 O1         -2.7346   -2.4790   -5.8835 O.2       1 <0>        -0.5547
     10 C7         -1.6497   -4.5380   -5.9459 C.2       1 <0>        -0.3705
     11 C8         -0.8908   -5.5865   -5.3738 C.2       1 <0>         0.1222
     12 N3         -0.7154   -6.5052   -6.2813 N.2       1 <0>        -0.2937
     13 N4         -1.3406   -6.1068   -7.4677 N.pl3     1 <0>        -0.3493
     14 C9         -1.9197   -4.9030   -7.2629 C.2       1 <0>         0.4454
     15 N5         -2.6398   -4.1719   -8.1853 N.pl3     1 <0>        -0.8254
     16 C10        -1.3668   -6.8355   -8.6644 C.ar      1 <0>         0.1550
     17 C11        -2.4874   -6.7888   -9.4829 C.ar      1 <0>        -0.1490
     18 C12        -2.5100   -7.5077  -10.6621 C.ar      1 <0>        -0.0919
     19 C13        -1.4183   -8.2738  -11.0275 C.ar      1 <0>        -0.1219
     20 C14        -0.3009   -8.3223  -10.2144 C.ar      1 <0>        -0.0949
     21 C15        -0.2699   -7.6011   -9.0369 C.ar      1 <0>        -0.1081
     22 C16        -0.1279   -1.9278   -1.8797 C.3       1 <0>         0.4769
     23 F1          0.3450   -1.8011   -0.5692 F         1 <0>        -0.1687
     24 F2          0.2762   -3.1602   -2.4042 F         1 <0>        -0.1664
     25 F3          0.3923   -0.8936   -2.6652 F         1 <0>        -0.1642
     26 O2         -2.1909   -2.9776   -1.1851 O.3       1 <0>        -0.5284
     27 S1         -4.3536    0.3727   -2.3515 S.o2      1 <0>         2.6807
     28 O3         -3.4769    0.4373   -3.4679 O.2       1 <0>        -0.9343
     29 O4         -5.6638   -0.1698   -2.4421 O.2       1 <0>        -0.9413
     30 C17        -4.5312    2.0210   -1.7546 C.ar      1 <0>        -0.6941
     31 C18        -5.6497    2.3738   -1.0226 C.ar      1 <0>         0.0097
     32 C19        -5.7898    3.6661   -0.5536 C.ar      1 <0>        -0.1734
     33 C20        -4.8096    4.6078   -0.8171 C.ar      1 <0>         0.1606
     34 C21        -3.6899    4.2534   -1.5503 C.ar      1 <0>        -0.1728
     35 C22        -3.5493    2.9590   -2.0139 C.ar      1 <0>         0.0102
     36 F4         -4.9458    5.8716   -0.3595 F         1 <0>        -0.1264
     37 H1         -5.0173   -0.7921    1.8660 H         1 <0>         0.0767
     38 H2         -3.4526   -0.0430    1.4675 H         1 <0>         0.0656
     39 H3         -4.9599    0.6443    0.8164 H         1 <0>         0.0569
     40 H4         -3.8174   -2.1034    0.1371 H         1 <0>         0.0965
     41 H5         -5.3247   -1.4161   -0.5141 H         1 <0>         0.1037
     42 H6         -1.6960    0.2980   -1.7155 H         1 <0>         0.1107
     43 H7         -1.7343   -0.5601   -0.1565 H         1 <0>         0.1176
     44 H8         -3.2546   -1.7948   -3.3233 H         1 <0>         0.0764
     45 H9         -1.7579   -0.9901   -3.8531 H         1 <0>         0.1153
     46 H10        -1.2153   -3.7401   -3.5071 H         1 <0>         0.4057
     47 H11        -0.5204   -5.6194   -4.3598 H         1 <0>         0.1930
     48 H12        -3.0142   -3.3122   -7.9371 H         1 <0>         0.4326
     49 H13        -2.7717   -4.5177   -9.0820 H         1 <0>         0.4035
     50 H14        -3.3406   -6.1912   -9.1977 H         1 <0>         0.1294
     51 H15        -3.3813   -7.4717  -11.2991 H         1 <0>         0.1352
     52 H16        -1.4387   -8.8356  -11.9496 H         1 <0>         0.1317
     53 H17         0.5501   -8.9219  -10.5023 H         1 <0>         0.1348
     54 H18         0.6048   -7.6359   -8.4045 H         1 <0>         0.1368
     55 H19        -3.1570   -2.9936   -1.1462 H         1 <0>         0.3968
     56 H20        -6.4143    1.6392   -0.8175 H         1 <0>         0.1507
     57 H21        -6.6638    3.9416    0.0180 H         1 <0>         0.1489
     58 H22        -2.9248    4.9872   -1.7568 H         1 <0>         0.1494
     59 H23        -2.6739    2.6812   -2.5820 H         1 <0>         0.1522
@<TRIPOS>BOND
     1    1    2 1
     2    1   37 1
     3    1   38 1
     4    1   39 1
     5    2    3 1
     6    2   40 1
     7    2   41 1
     8    3    4 1
     9    3   27 1
    10    4    5 1
    11    4   42 1
    12    4   43 1
    13    5    6 1
    14    5   22 1
    15    5   26 1
    16    6    7 1
    17    6   44 1
    18    6   45 1
    19    7    8 am
    20    7   46 1
    21    8    9 2
    22    8   10 1
    23   10   14 2
    24   10   11 1
    25   11   12 2
    26   11   47 1
    27   12   13 1
    28   13   14 1
    29   13   16 1
    30   14   15 1
    31   15   48 1
    32   15   49 1
    33   16   21 ar
    34   16   17 ar
    35   17   18 ar
    36   17   50 1
    37   18   19 ar
    38   18   51 1
    39   19   20 ar
    40   19   52 1
    41   20   21 ar
    42   20   53 1
    43   21   54 1
    44   22   23 1
    45   22   24 1
    46   22   25 1
    47   26   55 1
    48   27   28 2
    49   27   29 2
    50   27   30 1
    51   30   35 ar
    52   30   31 ar
    53   31   32 ar
    54   31   56 1
    55   32   33 ar
    56   32   57 1
    57   33   34 ar
    58   33   36 1
    59   34   35 ar
    60   34   58 1
    61   35   59 1
@<TRIPOS>MOLECULE
CHEMBL130141
   53    57     0     0     0
SMALL
USER_CHARGES

@<TRIPOS>ATOM
      1 C1         -0.5661    1.2925   -0.0396 C.3       1 <0>        -0.1144
      2 C2          0.0172   -0.0964    0.0027 C.ar      1 <0>        -0.1253
      3 C3          0.2913   -0.7759   -1.1636 C.ar      1 <0>         0.0959
      4 N1          0.8024   -1.9931   -1.1360 N.ar      1 <0>        -0.4814
      5 C4          1.0744   -2.6156   -0.0032 C.ar      1 <0>         0.0898
      6 C5          0.8332   -2.0132    1.2111 C.ar      1 <0>        -0.1499
      7 C6          0.2953   -0.7159    1.2316 C.ar      1 <0>        -0.0113
      8 C7          0.0261   -0.0296    2.5018 C.2       1 <0>        -0.1125
      9 C8         -0.0552   -0.7377    3.6471 C.2       1 <0>         0.1305
     10 C9         -0.1012   -0.2159    4.9389 C.ar      1 <0>        -0.0358
     11 C10        -1.0806   -0.8147    5.7679 C.ar      1 <0>        -0.0922
     12 C11        -1.5745   -0.1435    6.8629 C.ar      1 <0>        -0.0546
     13 C12        -1.1004    1.0741    7.2523 C.ar      1 <0>        -0.1655
     14 C13         0.0679    1.5659    6.6420 C.ar      1 <0>         0.2262
     15 C14         0.6426    0.8805    5.5152 C.ar      1 <0>        -0.0922
     16 C15         1.9618    1.2988    5.0546 C.2       1 <0>        -0.0625
     17 C16         2.5155    2.4041    5.5252 C.2       1 <0>        -0.1715
     18 C17         1.9048    3.2448    6.5364 C.3       1 <0>         0.2274
     19 N2          0.6549    2.7638    6.9678 N.pl3     1 <0>        -0.7073
     20 C18         1.8050    4.6952    6.0393 C.3       1 <0>        -0.1577
     21 C19         2.8838    3.3452    7.7796 C.3       1 <0>        -0.1726
     22 C20         2.7439    0.4447    3.9853 C.3       1 <0>        -0.1078
     23 C21        -1.5738   -2.2027    5.3588 C.ar      1 <0>        -0.1046
     24 C22        -2.5691   -2.7805    6.1058 C.ar      1 <0>        -0.1063
     25 C23        -2.9487   -4.0979    5.7331 C.ar      1 <0>         0.0714
     26 C24        -2.3238   -4.7244    4.6024 C.ar      1 <0>        -0.1167
     27 C25        -1.3523   -4.0764    3.9075 C.ar      1 <0>        -0.1192
     28 C26        -0.9010   -2.8031    4.2323 C.ar      1 <0>         0.1292
     29 O1         -0.0350   -2.1105    3.5811 O.3       1 <0>        -0.2298
     30 F1         -3.9088   -4.6984    6.3787 F         1 <0>        -0.1204
     31 H1          0.2408    2.0249   -0.0638 H         1 <0>         0.0756
     32 H2         -1.1820    1.4008   -0.9324 H         1 <0>         0.0735
     33 H3         -1.1790    1.4563    0.8467 H         1 <0>         0.0691
     34 H4          0.0849   -0.3066   -2.1141 H         1 <0>         0.1550
     35 H5          1.4917   -3.6113   -0.0300 H         1 <0>         0.1555
     36 H6          1.0579   -2.5285    2.1333 H         1 <0>         0.1513
     37 H7         -0.1067    1.0421    2.5190 H         1 <0>         0.1525
     38 H8         -2.4187   -0.5496    7.3960 H         1 <0>         0.1270
     39 H9         -1.5102    1.6262    8.0805 H         1 <0>         0.1360
     40 H10         3.5600    2.6413    5.0809 H         1 <0>         0.1364
     41 H11         0.1564    3.3306    7.6908 H         1 <0>         0.4057
     42 H12         1.1966    4.7285    5.1355 H         1 <0>         0.0581
     43 H13         1.3443    5.3127    6.8104 H         1 <0>         0.0616
     44 H14         2.8034    5.0733    5.8193 H         1 <0>         0.0722
     45 H15         3.8314    3.7801    7.4616 H         1 <0>         0.0678
     46 H16         2.4338    3.9756    8.5465 H         1 <0>         0.0597
     47 H17         3.0594    2.3488    8.1852 H         1 <0>         0.0537
     48 H18         2.4881    0.7928    2.9846 H         1 <0>         0.0708
     49 H19         3.8164    0.5557    4.1455 H         1 <0>         0.0668
     50 H20         2.4682   -0.6050    4.0865 H         1 <0>         0.0652
     51 H21        -3.0004   -2.3197    6.9309 H         1 <0>         0.1426
     52 H22        -2.6321   -5.7191    4.2632 H         1 <0>         0.1504
     53 H23        -0.8360   -4.5196    3.0697 H         1 <0>         0.1348
@<TRIPOS>BOND
     1    1    2 1
     2    1   31 1
     3    1   32 1
     4    1   33 1
     5    2    7 ar
     6    2    3 ar
     7    3    4 ar
     8    3   34 1
     9    4    5 ar
    10    5    6 ar
    11    5   35 1
    12    6    7 ar
    13    6   36 1
    14    7    8 1
    15    8    9 2
    16    8   37 1
    17    9   29 1
    18    9   10 1
    19   10   15 ar
    20   10   11 ar
    21   11   12 ar
    22   11   23 1
    23   12   13 ar
    24   12   38 1
    25   13   14 ar
    26   13   39 1
    27   14   19 1
    28   14   15 ar
    29   15   16 1
    30   16   17 2
    31   16   22 1
    32   17   18 1
    33   17   40 1
    34   18   19 1
    35   18   20 1
    36   18   21 1
    37   19   41 1
    38   20   42 1
    39   20   43 1
    40   20   44 1
    41   21   45 1
    42   21   46 1
    43   21   47 1
    44   22   48 1
    45   22   49 1
    46   22   50 1
    47   23   28 ar
    48   23   24 ar
    49   24   25 ar
    50   24   51 1
    51   25   26 ar
    52   25   30 1
    53   26   27 ar
    54   26   52 1
    55   27   28 ar
    56   27   53 1
    57   28   29 1
@<TRIPOS>MOLECULE
CHEMBL559547
   61    64     0     0     0
SMALL
USER_CHARGES

@<TRIPOS>ATOM
      1 C1          0.4728    1.7650    0.6126 C.3       1 <0>        -0.1796
      2 C2          0.3940    0.2530    0.3919 C.3       1 <0>         0.1083
      3 N1          0.9428   -0.4403    1.5600 N.pl3     1 <0>        -0.9918
      4 C3          0.0901   -0.7069    2.7211 C.3       1 <0>         0.0956
      5 C4         -0.6850   -2.0069    2.4969 C.3       1 <0>         0.0643
      6 C5         -1.5755   -2.2853    3.7094 C.3       1 <0>         0.0952
      7 N2         -2.5027   -1.1674    3.9014 N.pl3     1 <0>        -0.7370
      8 C6         -3.3392   -1.1393    5.0158 C.ar      1 <0>         0.2932
      9 C7         -3.2935   -2.1610    5.9457 C.ar      1 <0>        -0.2387
     10 C8         -4.1238   -2.1378    7.0573 C.ar      1 <0>        -0.0139
     11 C9         -5.0061   -1.0989    7.2537 C.ar      1 <0>        -0.1971
     12 C10        -5.0724   -0.0577    6.3321 C.ar      1 <0>         0.1703
     13 C11        -4.2309   -0.0685    5.2045 C.ar      1 <0>        -0.2304
     14 C12        -4.5165    1.1044    4.4659 C.2       1 <0>         0.0884
     15 N3         -5.4437    1.7741    5.0878 N.2       1 <0>        -0.2557
     16 N4         -5.8258    1.0884    6.2474 N.pl3     1 <0>        -0.3533
     17 C13        -6.7954    1.5049    7.1672 C.ar      1 <0>         0.1659
     18 C14        -7.5840    0.5663    7.8201 C.ar      1 <0>        -0.1365
     19 C15        -8.5394    0.9804    8.7273 C.ar      1 <0>        -0.0951
     20 C16        -8.7117    2.3280    8.9855 C.ar      1 <0>        -0.1259
     21 C17        -7.9285    3.2651    8.3368 C.ar      1 <0>        -0.0978
     22 C18        -6.9671    2.8572    7.4331 C.ar      1 <0>        -0.1187
     23 C19         0.3004   -3.1626    2.3116 C.3       1 <0>         0.4801
     24 F1          1.1412   -3.2419    3.4269 F         1 <0>        -0.1393
     25 F2         -0.4075   -4.3616    2.1750 F         1 <0>        -0.1721
     26 F3          1.0684   -2.9411    1.1634 F         1 <0>        -0.1780
     27 O1         -1.4974   -1.8816    1.3280 O.3       1 <0>        -0.5198
     28 S1          2.5269   -0.9226    1.5679 S.o2      1 <0>         2.6883
     29 O2          2.6201   -1.9960    2.4944 O.2       1 <0>        -0.9486
     30 O3          2.9184   -1.0537    0.2082 O.2       1 <0>        -0.9450
     31 C20         3.4722    0.4047    2.2383 C.ar      1 <0>        -0.6826
     32 C21         3.9817    1.3813    1.4030 C.ar      1 <0>        -0.0220
     33 C22         4.7233    2.4226    1.9289 C.ar      1 <0>        -0.1389
     34 C23         4.9551    2.4876    3.2902 C.ar      1 <0>        -0.0626
     35 C24         4.4449    1.5115    4.1255 C.ar      1 <0>        -0.1390
     36 C25         3.6997    0.4725    3.6001 C.ar      1 <0>        -0.0219
     37 H1          1.5132    2.0579    0.7533 H         1 <0>         0.0565
     38 H2          0.0645    2.2808   -0.2565 H         1 <0>         0.0742
     39 H3         -0.1032    2.0334    1.4982 H         1 <0>         0.0602
     40 H4         -0.6465   -0.0399    0.2512 H         1 <0>         0.0921
     41 H5          0.9699   -0.0154   -0.4937 H         1 <0>         0.0985
     42 H6          0.7098   -0.8025    3.6127 H         1 <0>         0.1098
     43 H7         -0.6119    0.1165    2.8530 H         1 <0>         0.1077
     44 H8         -2.1411   -3.2019    3.5420 H         1 <0>         0.0947
     45 H9         -0.9544   -2.3989    4.5979 H         1 <0>         0.0955
     46 H10        -2.5344   -0.4468    3.2529 H         1 <0>         0.3975
     47 H11        -2.6073   -2.9832    5.8060 H         1 <0>         0.1291
     48 H12        -4.0779   -2.9429    7.7757 H         1 <0>         0.1334
     49 H13        -5.6472   -1.0921    8.1228 H         1 <0>         0.1263
     50 H14        -4.0436    1.3958    3.5397 H         1 <0>         0.1896
     51 H15        -7.4504   -0.4863    7.6183 H         1 <0>         0.1320
     52 H16        -9.1529    0.2511    9.2353 H         1 <0>         0.1331
     53 H17        -9.4597    2.6493    9.6952 H         1 <0>         0.1294
     54 H18        -8.0657    4.3168    8.5404 H         1 <0>         0.1319
     55 H19        -6.3525    3.5893    6.9303 H         1 <0>         0.1314
     56 H20        -2.1468   -1.1667    1.3752 H         1 <0>         0.3901
     57 H21         3.8005    1.3306    0.3395 H         1 <0>         0.1387
     58 H22         5.1219    3.1852    1.2763 H         1 <0>         0.1342
     59 H23         5.5351    3.3007    3.7010 H         1 <0>         0.1324
     60 H24         4.6263    1.5620    5.1890 H         1 <0>         0.1341
     61 H25         3.2979   -0.2881    4.2532 H         1 <0>         0.1395
@<TRIPOS>BOND
     1    1    2 1
     2    1   37 1
     3    1   38 1
     4    1   39 1
     5    2    3 1
     6    2   40 1
     7    2   41 1
     8    3    4 1
     9    3   28 1
    10    4    5 1
    11    4   42 1
    12    4   43 1
    13    5    6 1
    14    5   23 1
    15    5   27 1
    16    6    7 1
    17    6   44 1
    18    6   45 1
    19    7    8 1
    20    7   46 1
    21    8   13 ar
    22    8    9 ar
    23    9   10 ar
    24    9   47 1
    25   10   11 ar
    26   10   48 1
    27   11   12 ar
    28   11   49 1
    29   12   16 1
    30   12   13 ar
    31   13   14 1
    32   14   15 2
    33   14   50 1
    34   15   16 1
    35   16   17 1
    36   17   22 ar
    37   17   18 ar
    38   18   19 ar
    39   18   51 1
    40   19   20 ar
    41   19   52 1
    42   20   21 ar
    43   20   53 1
    44   21   22 ar
    45   21   54 1
    46   22   55 1
    47   23   24 1
    48   23   25 1
    49   23   26 1
    50   27   56 1
    51   28   29 2
    52   28   30 2
    53   28   31 1
    54   31   36 ar
    55   31   32 ar
    56   32   33 ar
    57   32   57 1
    58   33   34 ar
    59   33   58 1
    60   34   35 ar
    61   34   59 1
    62   35   36 ar
    63   35   60 1
    64   36   61 1
@<TRIPOS>MOLECULE
CHEMBL559547__1
   61    64     0     0     0
SMALL
USER_CHARGES

@<TRIPOS>ATOM
      1 C1          3.1763   -0.1882    3.3124 C.3       1 <0>        -0.1773
      2 C2          2.0746   -1.1167    3.8270 C.3       1 <0>         0.0932
      3 N1          0.7739   -0.4581    3.6827 N.pl3     1 <0>        -0.9975
      4 C3          0.0411   -0.5533    2.4177 C.3       1 <0>         0.0969
      5 C4         -0.7529   -1.8608    2.3855 C.3       1 <0>         0.0633
      6 C5         -1.7469   -1.8827    3.5484 C.3       1 <0>         0.0958
      7 N2         -2.5071   -3.1346    3.5175 N.pl3     1 <0>        -0.7381
      8 C6         -3.4790   -3.3838    4.4849 C.ar      1 <0>         0.2946
      9 C7         -3.7332   -2.4503    5.4721 C.ar      1 <0>        -0.2451
     10 C8         -4.7001   -2.6931    6.4374 C.ar      1 <0>        -0.0131
     11 C9         -5.4221   -3.8657    6.4293 C.ar      1 <0>        -0.2026
     12 C10        -5.1854   -4.8226    5.4464 C.ar      1 <0>         0.1704
     13 C11        -4.2113   -4.5840    4.4595 C.ar      1 <0>        -0.2314
     14 C12        -4.2019   -5.7143    3.6080 C.2       1 <0>         0.0935
     15 N3         -5.0926   -6.5640    4.0320 N.2       1 <0>        -0.2598
     16 N4         -5.7231   -6.0577    5.1752 N.pl3     1 <0>        -0.3561
     17 C13        -6.7348   -6.6925    5.9055 C.ar      1 <0>         0.1699
     18 C14        -6.8058   -6.5294    7.2829 C.ar      1 <0>        -0.1378
     19 C15        -7.8053   -7.1566    8.0005 C.ar      1 <0>        -0.0954
     20 C16        -8.7346   -7.9467    7.3489 C.ar      1 <0>        -0.1284
     21 C17        -8.6665   -8.1115    5.9776 C.ar      1 <0>        -0.0979
     22 C18        -7.6731   -7.4821    5.2535 C.ar      1 <0>        -0.1199
     23 C19        -1.5139   -1.9628    1.0621 C.3       1 <0>         0.4769
     24 F1         -0.6187   -1.8173   -0.0031 F         1 <0>        -0.1690
     25 F2         -2.1390   -3.2116    0.9787 F         1 <0>        -0.1660
     26 F3         -2.4799   -0.9527    1.0006 F         1 <0>        -0.1643
     27 O1          0.1447   -2.9662    2.5052 O.3       1 <0>        -0.5281
     28 S1          0.1322    0.3940    4.9493 S.o2      1 <0>         2.6800
     29 O2         -1.2742    0.4233    4.7480 O.2       1 <0>        -0.9454
     30 O3          0.7219   -0.1298    6.1314 O.2       1 <0>        -0.9434
     31 C20         0.6972    2.0561    4.7986 C.ar      1 <0>        -0.6781
     32 C21         1.8811    2.4409    5.3996 C.ar      1 <0>        -0.0211
     33 C22         2.3243    3.7449    5.2813 C.ar      1 <0>        -0.1379
     34 C23         1.5840    4.6640    4.5616 C.ar      1 <0>        -0.0594
     35 C24         0.4005    4.2790    3.9599 C.ar      1 <0>        -0.1376
     36 C25        -0.0406    2.9739    4.0745 C.ar      1 <0>        -0.0211
     37 H1          3.1712    0.7365    3.8896 H         1 <0>         0.0581
     38 H2          4.1440   -0.6782    3.4198 H         1 <0>         0.0765
     39 H3          2.9987    0.0388    2.2612 H         1 <0>         0.0650
     40 H4          2.0797   -2.0413    3.2498 H         1 <0>         0.0957
     41 H5          2.2522   -1.3436    4.8782 H         1 <0>         0.1035
     42 H6         -0.6440    0.2900    2.3304 H         1 <0>         0.1108
     43 H7          0.7465   -0.5360    1.5869 H         1 <0>         0.1170
     44 H8         -1.2047   -1.8100    4.4912 H         1 <0>         0.0719
     45 H9         -2.4316   -1.0395    3.4571 H         1 <0>         0.1122
     46 H10        -2.3340   -3.7901    2.8238 H         1 <0>         0.4082
     47 H11        -3.1752   -1.5258    5.4925 H         1 <0>         0.1339
     48 H12        -4.8880   -1.9550    7.2031 H         1 <0>         0.1320
     49 H13        -6.1719   -4.0431    7.1860 H         1 <0>         0.1252
     50 H14        -3.5617   -5.8498    2.7488 H         1 <0>         0.1903
     51 H15        -6.0799   -5.9130    7.7924 H         1 <0>         0.1320
     52 H16        -7.8611   -7.0302    9.0716 H         1 <0>         0.1321
     53 H17        -9.5151   -8.4364    7.9124 H         1 <0>         0.1284
     54 H18        -9.3935   -8.7295    5.4718 H         1 <0>         0.1311
     55 H19        -7.6233   -7.6073    4.1819 H         1 <0>         0.1314
     56 H20         0.6617   -2.9664    3.3224 H         1 <0>         0.3968
     57 H21         2.4595    1.7228    5.9619 H         1 <0>         0.1396
     58 H22         3.2489    4.0457    5.7515 H         1 <0>         0.1354
     59 H23         1.9299    5.6830    4.4698 H         1 <0>         0.1337
     60 H24        -0.1781    4.9972    3.3979 H         1 <0>         0.1357
     61 H25        -0.9633    2.6722    3.6013 H         1 <0>         0.1410
@<TRIPOS>BOND
     1    1    2 1
     2    1   37 1
     3    1   38 1
     4    1   39 1
     5    2    3 1
     6    2   40 1
     7    2   41 1
     8    3    4 1
     9    3   28 1
    10    4    5 1
    11    4   42 1
    12    4   43 1
    13    5    6 1
    14    5   23 1
    15    5   27 1
    16    6    7 1
    17    6   44 1
    18    6   45 1
    19    7    8 1
    20    7   46 1
    21    8   13 ar
    22    8    9 ar
    23    9   10 ar
    24    9   47 1
    25   10   11 ar
    26   10   48 1
    27   11   12 ar
    28   11   49 1
    29   12   16 1
    30   12   13 ar
    31   13   14 1
    32   14   15 2
    33   14   50 1
    34   15   16 1
    35   16   17 1
    36   17   22 ar
    37   17   18 ar
    38   18   19 ar
    39   18   51 1
    40   19   20 ar
    41   19   52 1
    42   20   21 ar
    43   20   53 1
    44   21   22 ar
    45   21   54 1
    46   22   55 1
    47   23   24 1
    48   23   25 1
    49   23   26 1
    50   27   56 1
    51   28   29 2
    52   28   30 2
    53   28   31 1
    54   31   36 ar
    55   31   32 ar
    56   32   33 ar
    57   32   57 1
    58   33   34 ar
    59   33   58 1
    60   34   35 ar
    61   34   59 1
    62   35   36 ar
    63   35   60 1
    64   36   61 1
@<TRIPOS>MOLECULE
CHEMBL251303
   82    88     0     0     0
SMALL
USER_CHARGES

@<TRIPOS>ATOM
      1 C1          4.2645   -5.2759   -2.7402 C.3       1 <0>        -0.0467
      2 C2          3.6556   -6.3169   -1.8962 C.1       1 <0>        -0.1618
      3 C3          3.1699   -7.1471   -1.2231 C.1       1 <0>        -0.2140
      4 C4          2.5610   -8.1881   -0.3791 C.3       1 <0>         0.2588
      5 C5          3.2071   -9.5633   -0.6749 C.3       1 <0>        -0.1448
      6 C6          2.0831  -10.4589   -1.2605 C.3       1 <0>        -0.1140
      7 C7          1.0874   -9.4390   -1.8289 C.3       1 <0>        -0.0794
      8 H1          1.4545   -9.0296   -2.7701 H         1 <0>         0.0808
      9 C8          1.0820   -8.3499   -0.7239 C.3       1 <0>        -0.0392
     10 C9          0.4067   -7.1216   -1.3088 C.3       1 <0>        -0.0955
     11 C10        -1.0736   -7.4742   -1.5205 C.3       1 <0>        -0.0335
     12 H2         -1.5582   -6.6692   -2.0728 H         1 <0>         0.1085
     13 C11        -1.2162   -8.7679   -2.2976 C.2       1 <0>        -0.0527
     14 C12        -2.1358   -8.8081   -3.2599 C.2       1 <0>        -0.1242
     15 C13        -2.9889   -7.5971   -3.5618 C.3       1 <0>        -0.0830
     16 C14        -3.0979   -7.4438   -5.0820 C.3       1 <0>        -0.1657
     17 C15        -3.5148   -8.7496   -5.7029 C.2       1 <0>         0.3866
     18 O1         -4.2548   -8.7415   -6.6661 O.2       1 <0>        -0.4683
     19 C16        -3.0641   -9.9788   -5.1904 C.2       1 <0>        -0.2435
     20 C17        -2.3667  -10.0265   -4.0354 C.2       1 <0>         0.0244
     21 C18        -1.8089  -11.3208   -3.4959 C.3       1 <0>        -0.0960
     22 C19        -0.3835  -11.0481   -3.0178 C.3       1 <0>        -0.1110
     23 C20        -0.3349   -9.9581   -1.9917 C.3       1 <0>        -0.0456
     24 H3         -0.6622  -10.3932   -1.0474 H         1 <0>         0.0946
     25 C21        -1.7430   -7.6272   -0.1790 C.ar      1 <0>        -0.0101
     26 C22        -1.4365   -6.7561    0.8497 C.ar      1 <0>        -0.1345
     27 C23        -2.0505   -6.8963    2.0802 C.ar      1 <0>        -0.0617
     28 C24        -2.9714   -7.9074    2.2819 C.ar      1 <0>        -0.7524
     29 C25        -3.2785   -8.7779    1.2530 C.ar      1 <0>        -0.0275
     30 C26        -2.6677   -8.6350    0.0212 C.ar      1 <0>        -0.1462
     31 P1         -3.7763   -8.0922    3.8970 P.3       1 <0>         2.6897
     32 O2         -4.3499   -9.4518    4.0097 O.2       1 <0>        -1.0190
     33 C27        -2.5544   -7.8404    5.2139 C.ar      1 <0>        -0.7445
     34 C28        -2.1563   -6.5605    5.5520 C.ar      1 <0>        -0.0688
     35 C29        -1.2252   -6.3686    6.5555 C.ar      1 <0>        -0.1381
     36 C30        -0.6924   -7.4567    7.2212 C.ar      1 <0>        -0.0825
     37 C31        -1.0911   -8.7365    6.8838 C.ar      1 <0>        -0.1367
     38 C32        -2.0254   -8.9282    5.8832 C.ar      1 <0>        -0.0349
     39 C33        -5.1000   -6.8623    4.0572 C.ar      1 <0>        -0.7440
     40 C34        -4.9975   -5.6477    3.4052 C.ar      1 <0>        -0.0692
     41 C35        -6.0062   -4.7104    3.5272 C.ar      1 <0>        -0.1383
     42 C36        -7.1176   -4.9879    4.3010 C.ar      1 <0>        -0.0830
     43 C37        -7.2205   -6.2028    4.9523 C.ar      1 <0>        -0.1366
     44 C38        -6.2138   -7.1418    4.8268 C.ar      1 <0>        -0.0365
     45 C39         0.3126   -8.8511    0.4999 C.3       1 <0>        -0.1578
     46 O3          2.7131   -7.8553    1.0023 O.3       1 <0>        -0.5396
     47 H4          5.3187   -5.1710   -2.4839 H         1 <0>         0.0822
     48 H5          4.1719   -5.5583   -3.7889 H         1 <0>         0.0827
     49 H6          3.7538   -4.3277   -2.5728 H         1 <0>         0.0819
     50 H7          4.0118   -9.4500   -1.4014 H         1 <0>         0.0727
     51 H8          3.5928  -10.0012    0.2458 H         1 <0>         0.0817
     52 H9          2.4733  -11.0987   -2.0520 H         1 <0>         0.0728
     53 H10         1.6177  -11.0554   -0.4758 H         1 <0>         0.0769
     54 H11         0.4934   -6.2849   -0.6157 H         1 <0>         0.0759
     55 H12         0.8668   -6.8639   -2.2627 H         1 <0>         0.0734
     56 H13        -3.9827   -7.7341   -3.1356 H         1 <0>         0.0837
     57 H14        -2.5248   -6.7073   -3.1365 H         1 <0>         0.0904
     58 H15        -3.8386   -6.6791   -5.3162 H         1 <0>         0.0952
     59 H16        -2.1308   -7.1438   -5.4855 H         1 <0>         0.0988
     60 H17        -3.2776  -10.8925   -5.7252 H         1 <0>         0.1366
     61 H18        -2.4188  -11.6667   -2.6614 H         1 <0>         0.0916
     62 H19        -1.7967  -12.0746   -4.2831 H         1 <0>         0.0871
     63 H20         0.0292  -11.9627   -2.5919 H         1 <0>         0.0809
     64 H21         0.2259  -10.7487   -3.8705 H         1 <0>         0.0671
     65 H22        -0.7170   -5.9662    0.6921 H         1 <0>         0.1266
     66 H23        -1.8105   -6.2162    2.8841 H         1 <0>         0.1195
     67 H24        -3.9977   -9.5680    1.4106 H         1 <0>         0.1450
     68 H25        -2.9104   -9.3128   -0.7839 H         1 <0>         0.1307
     69 H26        -2.5726   -5.7105    5.0318 H         1 <0>         0.1195
     70 H27        -0.9137   -5.3687    6.8191 H         1 <0>         0.1249
     71 H28         0.0356   -7.3068    8.0048 H         1 <0>         0.1260
     72 H29        -0.6746   -9.5866    7.4037 H         1 <0>         0.1305
     73 H30        -2.3397   -9.9279    5.6221 H         1 <0>         0.1465
     74 H31        -4.1292   -5.4309    2.8006 H         1 <0>         0.1230
     75 H32        -5.9258   -3.7612    3.0183 H         1 <0>         0.1254
     76 H33        -7.9054   -4.2553    4.3969 H         1 <0>         0.1266
     77 H34        -8.0887   -6.4195    5.5571 H         1 <0>         0.1307
     78 H35        -6.2959   -8.0925    5.3326 H         1 <0>         0.1424
     79 H36         0.2172   -8.0430    1.2251 H         1 <0>         0.0718
     80 H37        -0.6793   -9.1840    0.1942 H         1 <0>         0.0843
     81 H38         0.8518   -9.6835    0.9522 H         1 <0>         0.0545
     82 H39         3.6329   -7.7582    1.2845 H         1 <0>         0.3780
@<TRIPOS>BOND
     1    1    2 1
     2    1   47 1
     3    1   48 1
     4    1   49 1
     5    2    3 3
     6    3    4 1
     7    4    9 1
     8    4    5 1
     9    4   46 1
    10    5    6 1
    11    5   50 1
    12    5   51 1
    13    6    7 1
    14    6   52 1
    15    6   53 1
    16    7    8 1
    17    7   23 1
    18    7    9 1
    19    9   10 1
    20    9   45 1
    21   10   11 1
    22   10   54 1
    23   10   55 1
    24   11   12 1
    25   11   13 1
    26   11   25 1
    27   13   23 1
    28   13   14 2
    29   14   20 1
    30   14   15 1
    31   15   16 1
    32   15   56 1
    33   15   57 1
    34   16   17 1
    35   16   58 1
    36   16   59 1
    37   17   18 2
    38   17   19 1
    39   19   20 2
    40   19   60 1
    41   20   21 1
    42   21   22 1
    43   21   61 1
    44   21   62 1
    45   22   23 1
    46   22   63 1
    47   22   64 1
    48   23   24 1
    49   25   30 ar
    50   25   26 ar
    51   26   27 ar
    52   26   65 1
    53   27   28 ar
    54   27   66 1
    55   28   29 ar
    56   28   31 1
    57   29   30 ar
    58   29   67 1
    59   30   68 1
    60   31   32 2
    61   31   33 1
    62   31   39 1
    63   33   38 ar
    64   33   34 ar
    65   34   35 ar
    66   34   69 1
    67   35   36 ar
    68   35   70 1
    69   36   37 ar
    70   36   71 1
    71   37   38 ar
    72   37   72 1
    73   38   73 1
    74   39   44 ar
    75   39   40 ar
    76   40   41 ar
    77   40   74 1
    78   41   42 ar
    79   41   75 1
    80   42   43 ar
    81   42   76 1
    82   43   44 ar
    83   43   77 1
    84   44   78 1
    85   45   79 1
    86   45   80 1
    87   45   81 1
    88   46   82 1
@<TRIPOS>MOLECULE
CHEMBL47463
   55    59     0     0     0
SMALL
USER_CHARGES

@<TRIPOS>ATOM
      1 C1         -0.0184    1.5033    0.0103 C.3       1 <0>        -0.1217
      2 C2          0.0021   -0.0041    0.0020 C.2       1 <0>        -0.0581
      3 C3         -0.0873   -0.6025   -1.1867 C.2       1 <0>        -0.1786
      4 C4         -0.0486   -2.0997   -1.3076 C.3       1 <0>         0.2133
      5 N1          0.7636   -2.6522   -0.2178 N.pl3     1 <0>        -0.7344
      6 C5          0.6158   -2.1285    1.0658 C.ar      1 <0>         0.2222
      7 C6          0.1321   -0.8086    1.2249 C.ar      1 <0>        -0.0971
      8 C7         -0.2815   -0.4203    2.4923 C.ar      1 <0>        -0.0560
      9 C8          0.2024   -1.1290    3.6016 C.ar      1 <0>        -0.0755
     10 C9          0.8390   -2.3522    3.4334 C.ar      1 <0>        -0.0451
     11 C10         1.0256   -2.8611    2.1634 C.ar      1 <0>        -0.1880
     12 C11         0.0708   -0.5221    4.9472 C.ar      1 <0>        -0.1406
     13 C12        -0.9177    0.4594    5.1129 C.ar      1 <0>         0.1741
     14 C13        -1.0958    1.0639    6.3455 C.ar      1 <0>        -0.1835
     15 C14        -0.3097    0.6921    7.4201 C.ar      1 <0>        -0.0462
     16 C15         0.6627   -0.2759    7.2665 C.ar      1 <0>        -0.2409
     17 C16         0.8641   -0.8792    6.0294 C.ar      1 <0>         0.1693
     18 O1          1.8641   -1.7917    5.9107 O.3       1 <0>        -0.3103
     19 C17         2.6183   -2.0847    7.0886 C.3       1 <0>         0.0244
     20 O2         -1.6990    0.7899    4.0669 O.3       1 <0>        -0.3029
     21 C18        -1.2226    0.7266    2.7270 C.3       1 <0>         0.1568
     22 C19        -2.4608    0.5378    1.8483 C.3       1 <0>        -0.0637
     23 C20        -3.4360    1.7241    2.0295 C.3       1 <0>        -0.1202
     24 C21        -4.8052    1.0111    1.9392 C.3       1 <0>        -0.0978
     25 C22        -4.5222   -0.4166    2.3450 C.2       1 <0>        -0.1656
     26 C23        -3.2437   -0.6747    2.2954 C.2       1 <0>        -0.1443
     27 C24         0.5728   -2.4874   -2.6514 C.3       1 <0>        -0.1531
     28 C25        -1.4691   -2.6607   -1.2252 C.3       1 <0>        -0.1575
     29 H1          0.4979    1.8688    0.8980 H         1 <0>         0.0653
     30 H2          0.4830    1.8783   -0.8819 H         1 <0>         0.0707
     31 H3         -1.0508    1.8526    0.0208 H         1 <0>         0.0737
     32 H4         -0.1894    0.0054   -2.0725 H         1 <0>         0.1234
     33 H5          1.3940   -3.3724   -0.3882 H         1 <0>         0.4018
     34 H6          1.1645   -2.9331    4.2815 H         1 <0>         0.1353
     35 H7          1.4897   -3.8271    2.0280 H         1 <0>         0.1247
     36 H8         -1.8510    1.8267    6.4671 H         1 <0>         0.1332
     37 H9         -0.4575    1.1598    8.3819 H         1 <0>         0.1326
     38 H10         1.2721   -0.5688    8.1089 H         1 <0>         0.1323
     39 H11         3.0945   -1.1737    7.4511 H         1 <0>         0.0575
     40 H12         1.9531   -2.4776    7.8575 H         1 <0>         0.0575
     41 H13         3.3824   -2.8262    6.8557 H         1 <0>         0.1011
     42 H14        -0.7434    1.6700    2.4832 H         1 <0>         0.0850
     43 H15        -2.1714    0.4383    0.8021 H         1 <0>         0.1057
     44 H16        -3.3033    2.1944    3.0039 H         1 <0>         0.0826
     45 H17        -3.3202    2.4520    1.2265 H         1 <0>         0.0720
     46 H18        -5.5170    1.4674    2.6270 H         1 <0>         0.0706
     47 H19        -5.1855    1.0474    0.9183 H         1 <0>         0.0731
     48 H20        -5.2785   -1.1298    2.6380 H         1 <0>         0.1218
     49 H21        -2.8033   -1.6297    2.5414 H         1 <0>         0.1175
     50 H22         1.5868   -2.0919   -2.7105 H         1 <0>         0.0629
     51 H23         0.6007   -3.5736   -2.7388 H         1 <0>         0.0631
     52 H24        -0.0267   -2.0730   -3.4620 H         1 <0>         0.0743
     53 H25        -2.0702   -2.2483   -2.0356 H         1 <0>         0.0656
     54 H26        -1.4365   -3.7466   -1.3133 H         1 <0>         0.0590
     55 H27        -1.9129   -2.3870   -0.2681 H         1 <0>         0.0589
@<TRIPOS>BOND
     1    1    2 1
     2    1   29 1
     3    1   30 1
     4    1   31 1
     5    2    7 1
     6    2    3 2
     7    3    4 1
     8    3   32 1
     9    4    5 1
    10    4   27 1
    11    4   28 1
    12    5    6 1
    13    5   33 1
    14    6   11 ar
    15    6    7 ar
    16    7    8 ar
    17    8   21 1
    18    8    9 ar
    19    9   10 ar
    20    9   12 1
    21   10   11 ar
    22   10   34 1
    23   11   35 1
    24   12   17 ar
    25   12   13 ar
    26   13   14 ar
    27   13   20 1
    28   14   15 ar
    29   14   36 1
    30   15   16 ar
    31   15   37 1
    32   16   17 ar
    33   16   38 1
    34   17   18 1
    35   18   19 1
    36   19   39 1
    37   19   40 1
    38   19   41 1
    39   20   21 1
    40   21   22 1
    41   21   42 1
    42   22   26 1
    43   22   23 1
    44   22   43 1
    45   23   24 1
    46   23   44 1
    47   23   45 1
    48   24   25 1
    49   24   46 1
    50   24   47 1
    51   25   26 2
    52   25   48 1
    53   26   49 1
    54   27   50 1
    55   27   51 1
    56   27   52 1
    57   28   53 1
    58   28   54 1
    59   28   55 1
@<TRIPOS>MOLECULE
CHEMBL47463__1
   55    59     0     0     0
SMALL
USER_CHARGES

@<TRIPOS>ATOM
      1 C1          0.0655    1.1420   -0.0302 C.3       1 <0>        -0.1221
      2 C2         -0.0215   -0.3563    0.1109 C.2       1 <0>        -0.0576
      3 C3         -0.1395   -1.0629   -1.0143 C.2       1 <0>        -0.1792
      4 C4         -0.2062   -2.5637   -0.9859 C.3       1 <0>         0.2133
      5 N1          0.5518   -3.0599    0.1682 N.pl3     1 <0>        -0.7344
      6 C5          0.4268   -2.4015    1.3908 C.ar      1 <0>         0.2221
      7 C6          0.0366   -1.0418    1.4096 C.ar      1 <0>        -0.0978
      8 C7         -0.3630   -0.5009    2.6244 C.ar      1 <0>        -0.0566
      9 C8          0.0562   -1.1272    3.8071 C.ar      1 <0>        -0.0753
     10 C9          0.6059   -2.4026    3.7727 C.ar      1 <0>        -0.0445
     11 C10         0.7705   -3.0475    2.5629 C.ar      1 <0>        -0.1874
     12 C11        -0.0474   -0.3812    5.0835 C.ar      1 <0>        -0.1407
     13 C12        -0.9653    0.6785    5.1329 C.ar      1 <0>         0.1721
     14 C13        -1.1142    1.4141    6.2962 C.ar      1 <0>        -0.1826
     15 C14        -0.3692    1.0976    7.4168 C.ar      1 <0>        -0.0464
     16 C15         0.5334    0.0535    7.3778 C.ar      1 <0>        -0.2404
     17 C16         0.7057   -0.6829    6.2104 C.ar      1 <0>         0.1693
     18 O1          1.6395   -1.6702    6.2011 O.3       1 <0>        -0.3102
     19 C17         2.3571   -1.8959    7.4161 C.3       1 <0>         0.0243
     20 O2         -1.7088    0.9566    4.0450 O.3       1 <0>        -0.3021
     21 C18        -1.2226    0.7266    2.7270 C.3       1 <0>         0.1570
     22 C19        -2.4608    0.5378    1.8483 C.3       1 <0>        -0.0628
     23 C20        -3.3685   -0.5719    2.4278 C.3       1 <0>        -0.1137
     24 C21        -4.7751   -0.0102    2.1163 C.3       1 <0>        -0.1003
     25 C22        -4.5781    1.4845    2.0152 C.2       1 <0>        -0.1579
     26 C23        -3.3159    1.7834    1.8691 C.2       1 <0>        -0.1572
     27 C24         0.4015   -3.1261   -2.2729 C.3       1 <0>        -0.1531
     28 C25        -1.6639   -3.0131   -0.8750 C.3       1 <0>        -0.1577
     29 H1          0.5962    1.5574    0.8264 H         1 <0>         0.0650
     30 H2          0.6026    1.3902   -0.9456 H         1 <0>         0.0704
     31 H3         -0.9395    1.5618   -0.0734 H         1 <0>         0.0747
     32 H4         -0.1876   -0.5409   -1.9576 H         1 <0>         0.1235
     33 H5          1.1312   -3.8357    0.0816 H         1 <0>         0.4019
     34 H6          0.8793   -2.9171    4.6799 H         1 <0>         0.1355
     35 H7          1.1661   -4.0523    2.5322 H         1 <0>         0.1249
     36 H8         -1.8144    2.2361    6.3277 H         1 <0>         0.1334
     37 H9         -0.4944    1.6681    8.3247 H         1 <0>         0.1326
     38 H10         1.1106   -0.1955    8.2562 H         1 <0>         0.1324
     39 H11         2.8928   -0.9888    7.6956 H         1 <0>         0.0575
     40 H12         1.6566   -2.1627    8.2075 H         1 <0>         0.0576
     41 H13         3.0691   -2.7085    7.2719 H         1 <0>         0.1011
     42 H14        -0.6745    1.6051    2.4002 H         1 <0>         0.0845
     43 H15        -2.1672    0.2958    0.8268 H         1 <0>         0.1061
     44 H16        -3.2034   -1.5197    1.9154 H         1 <0>         0.0673
     45 H17        -3.2188   -0.6785    3.5022 H         1 <0>         0.0788
     46 H18        -5.1427   -0.4095    1.1710 H         1 <0>         0.0732
     47 H19        -5.4666   -0.2482    2.9246 H         1 <0>         0.0700
     48 H20        -5.3768    2.2103    2.0580 H         1 <0>         0.1239
     49 H21        -2.9331    2.7889    1.7756 H         1 <0>         0.1242
     50 H22         1.4418   -2.8102   -2.3518 H         1 <0>         0.0629
     51 H23         0.3530   -4.2149   -2.2520 H         1 <0>         0.0632
     52 H24        -0.1573   -2.7539   -3.1315 H         1 <0>         0.0743
     53 H25        -2.2246   -2.6428   -1.7333 H         1 <0>         0.0660
     54 H26        -1.7078   -4.1021   -0.8547 H         1 <0>         0.0595
     55 H27        -2.0982   -2.6149    0.0420 H         1 <0>         0.0579
@<TRIPOS>BOND
     1    1    2 1
     2    1   29 1
     3    1   30 1
     4    1   31 1
     5    2    7 1
     6    2    3 2
     7    3    4 1
     8    3   32 1
     9    4    5 1
    10    4   27 1
    11    4   28 1
    12    5    6 1
    13    5   33 1
    14    6   11 ar
    15    6    7 ar
    16    7    8 ar
    17    8   21 1
    18    8    9 ar
    19    9   10 ar
    20    9   12 1
    21   10   11 ar
    22   10   34 1
    23   11   35 1
    24   12   17 ar
    25   12   13 ar
    26   13   14 ar
    27   13   20 1
    28   14   15 ar
    29   14   36 1
    30   15   16 ar
    31   15   37 1
    32   16   17 ar
    33   16   38 1
    34   17   18 1
    35   18   19 1
    36   19   39 1
    37   19   40 1
    38   19   41 1
    39   20   21 1
    40   21   22 1
    41   21   42 1
    42   22   26 1
    43   22   23 1
    44   22   43 1
    45   23   24 1
    46   23   44 1
    47   23   45 1
    48   24   25 1
    49   24   46 1
    50   24   47 1
    51   25   26 2
    52   25   48 1
    53   26   49 1
    54   27   50 1
    55   27   51 1
    56   27   52 1
    57   28   53 1
    58   28   54 1
    59   28   55 1
@<TRIPOS>MOLECULE
CHEMBL47463__2
   55    59     0     0     0
SMALL
USER_CHARGES

@<TRIPOS>ATOM
      1 C1         -0.5082    1.9841    0.0551 C.3       1 <0>        -0.1317
      2 C2         -0.4152    0.5025   -0.1998 C.2       1 <0>        -0.0585
      3 C3         -0.6744    0.1109   -1.4501 C.2       1 <0>        -0.1801
      4 C4         -0.6037   -1.3331   -1.8533 C.3       1 <0>         0.2132
      5 N1          0.3700   -2.0240   -1.0032 N.pl3     1 <0>        -0.7365
      6 C5          0.3961   -1.7453    0.3631 C.ar      1 <0>         0.2211
      7 C6         -0.0549   -0.4866    0.8283 C.ar      1 <0>        -0.0908
      8 C7         -0.1840   -0.3076    2.1973 C.ar      1 <0>        -0.0535
      9 C8          0.3314   -1.2729    3.0806 C.ar      1 <0>        -0.0762
     10 C9          0.9060   -2.4396    2.5933 C.ar      1 <0>        -0.0445
     11 C10         0.9348   -2.6724    1.2342 C.ar      1 <0>        -0.1871
     12 C11         0.2155   -1.0320    4.5387 C.ar      1 <0>        -0.1279
     13 C12        -0.7887   -0.1458    4.9638 C.ar      1 <0>         0.1535
     14 C13        -0.9774    0.1047    6.3078 C.ar      1 <0>        -0.1750
     15 C14        -0.1697   -0.5160    7.2446 C.ar      1 <0>        -0.0520
     16 C15         0.8277   -1.3802    6.8379 C.ar      1 <0>        -0.2323
     17 C16         1.0298   -1.6371    5.4860 C.ar      1 <0>         0.1641
     18 O1          2.0480   -2.4617    5.1253 O.3       1 <0>        -0.3100
     19 C17         2.8251   -3.0325    6.1800 C.3       1 <0>         0.0242
     20 O2         -1.5499    0.4630    4.0169 O.3       1 <0>        -0.3039
     21 C18        -0.8533    0.8837    2.8308 C.3       1 <0>         0.1430
     22 C19         0.1992    1.9148    3.2431 C.3       1 <0>        -0.0919
     23 C20        -0.4773    3.2512    3.6271 C.3       1 <0>        -0.1159
     24 C21         0.5435    4.2780    3.0842 C.3       1 <0>        -0.1001
     25 C22         1.2759    3.5463    1.9836 C.2       1 <0>        -0.1748
     26 C23         1.0882    2.2575    2.0702 C.2       1 <0>        -0.1445
     27 C24        -0.1648   -1.4346   -3.3162 C.3       1 <0>        -0.1526
     28 C25        -1.9796   -1.9823   -1.6920 C.3       1 <0>        -0.1577
     29 H1          0.4741    2.4377   -0.0764 H         1 <0>         0.0782
     30 H2         -1.2115    2.4302   -0.6481 H         1 <0>         0.0649
     31 H3         -0.8546    2.1564    1.0741 H         1 <0>         0.0785
     32 H4         -0.9411    0.8596   -2.1820 H         1 <0>         0.1228
     33 H5          0.9899   -2.6688   -1.3859 H         1 <0>         0.4017
     34 H6          1.3105   -3.1827    3.2621 H         1 <0>         0.1355
     35 H7          1.3792   -3.5799    0.8492 H         1 <0>         0.1251
     36 H8         -1.7526    0.7839    6.6314 H         1 <0>         0.1344
     37 H9         -0.3204   -0.3225    8.2957 H         1 <0>         0.1329
     38 H10         1.4574   -1.8615    7.5721 H         1 <0>         0.1326
     39 H11         3.2862   -2.2358    6.7638 H         1 <0>         0.0574
     40 H12         2.1798   -3.6288    6.8251 H         1 <0>         0.0576
     41 H13         3.6021   -3.6683    5.7556 H         1 <0>         0.1015
     42 H14        -1.5893    1.3200    2.1697 H         1 <0>         0.1304
     43 H15         0.7954    1.5366    4.0736 H         1 <0>         0.0922
     44 H16        -1.4418    3.3583    3.1307 H         1 <0>         0.0753
     45 H17        -0.5837    3.3394    4.7083 H         1 <0>         0.0759
     46 H18         0.0277    5.1502    2.6824 H         1 <0>         0.0717
     47 H19         1.2379    4.5751    3.8701 H         1 <0>         0.0745
     48 H20         1.8757    4.0266    1.2246 H         1 <0>         0.1248
     49 H21         1.5127    1.5313    1.3928 H         1 <0>         0.1280
     50 H22         0.8173   -0.9765   -3.4335 H         1 <0>         0.0626
     51 H23        -0.1137   -2.4835   -3.6083 H         1 <0>         0.0629
     52 H24        -0.8855   -0.9161   -3.9486 H         1 <0>         0.0740
     53 H25        -2.7014   -1.4658   -2.3246 H         1 <0>         0.0658
     54 H26        -1.9234   -3.0304   -1.9858 H         1 <0>         0.0593
     55 H27        -2.2941   -1.9132   -0.6507 H         1 <0>         0.0574
@<TRIPOS>BOND
     1    1    2 1
     2    1   29 1
     3    1   30 1
     4    1   31 1
     5    2    7 1
     6    2    3 2
     7    3    4 1
     8    3   32 1
     9    4    5 1
    10    4   27 1
    11    4   28 1
    12    5    6 1
    13    5   33 1
    14    6   11 ar
    15    6    7 ar
    16    7    8 ar
    17    8   21 1
    18    8    9 ar
    19    9   10 ar
    20    9   12 1
    21   10   11 ar
    22   10   34 1
    23   11   35 1
    24   12   17 ar
    25   12   13 ar
    26   13   14 ar
    27   13   20 1
    28   14   15 ar
    29   14   36 1
    30   15   16 ar
    31   15   37 1
    32   16   17 ar
    33   16   38 1
    34   17   18 1
    35   18   19 1
    36   19   39 1
    37   19   40 1
    38   19   41 1
    39   20   21 1
    40   21   22 1
    41   21   42 1
    42   22   26 1
    43   22   23 1
    44   22   43 1
    45   23   24 1
    46   23   44 1
    47   23   45 1
    48   24   25 1
    49   24   46 1
    50   24   47 1
    51   25   26 2
    52   25   48 1
    53   26   49 1
    54   27   50 1
    55   27   51 1
    56   27   52 1
    57   28   53 1
    58   28   54 1
    59   28   55 1
@<TRIPOS>MOLECULE
CHEMBL47463__3
   55    59     0     0     0
SMALL
USER_CHARGES

@<TRIPOS>ATOM
      1 C1          0.0099    1.4722    0.0125 C.3       1 <0>        -0.1219
      2 C2          0.0248   -0.0338    0.0185 C.2       1 <0>        -0.0609
      3 C3         -0.0639   -0.6207   -1.1779 C.2       1 <0>        -0.1777
      4 C4         -0.0459   -2.1142   -1.3256 C.3       1 <0>         0.2127
      5 N1          0.7236   -2.6986   -0.2235 N.pl3     1 <0>        -0.7367
      6 C5          0.5576   -2.1903    1.0646 C.ar      1 <0>         0.2217
      7 C6          0.1397   -0.8489    1.2383 C.ar      1 <0>        -0.0914
      8 C7         -0.1886   -0.4311    2.5190 C.ar      1 <0>        -0.0534
      9 C8          0.1044   -1.2549    3.6204 C.ar      1 <0>        -0.0774
     10 C9          0.6561   -2.5154    3.4312 C.ar      1 <0>        -0.0460
     11 C10         0.8791   -2.9799    2.1517 C.ar      1 <0>        -0.1870
     12 C11        -0.2225   -0.7627    4.9800 C.ar      1 <0>        -0.1161
     13 C12        -1.2105    0.2315    5.0809 C.ar      1 <0>         0.1655
     14 C13        -1.5920    0.7157    6.3157 C.ar      1 <0>        -0.1706
     15 C14        -0.9941    0.2249    7.4632 C.ar      1 <0>        -0.0516
     16 C15        -0.0128   -0.7428    7.3754 C.ar      1 <0>        -0.2313
     17 C16         0.3824   -1.2358    6.1362 C.ar      1 <0>         0.1572
     18 O1          1.3804   -2.1569    6.0902 O.3       1 <0>        -0.3115
     19 C17         1.9341   -2.5763    7.3390 C.3       1 <0>         0.0251
     20 O2         -1.7608    0.7082    3.9335 O.3       1 <0>        -0.3029
     21 C18        -0.8538    0.8837    2.8309 C.3       1 <0>         0.1423
     22 C19         0.1981    1.9147    3.2449 C.3       1 <0>        -0.0926
     23 C20        -0.4833    3.1797    3.8166 C.3       1 <0>        -0.1207
     24 C21         0.5011    3.5754    4.9415 C.3       1 <0>        -0.0961
     25 C22         1.2025    2.2884    5.3086 C.2       1 <0>        -0.1656
     26 C23         1.0372    1.3827    4.3833 C.2       1 <0>        -0.1621
     27 C24        -1.4773   -2.6533   -1.2965 C.3       1 <0>        -0.1578
     28 C25         0.6085   -2.4882   -2.6579 C.3       1 <0>        -0.1527
     29 H1          0.8935    1.8464    0.5296 H         1 <0>         0.0702
     30 H2          0.0118    1.8315   -1.0166 H         1 <0>         0.0701
     31 H3         -0.8864    1.8288    0.5201 H         1 <0>         0.0710
     32 H4         -0.1508    0.0040   -2.0552 H         1 <0>         0.1235
     33 H5          1.3418   -3.4316   -0.3875 H         1 <0>         0.4019
     34 H6          0.8932   -3.1512    4.2694 H         1 <0>         0.1357
     35 H7          1.3051   -3.9618    1.9981 H         1 <0>         0.1251
     36 H8         -2.3555    1.4763    6.3901 H         1 <0>         0.1304
     37 H9         -1.2963    0.6006    8.4289 H         1 <0>         0.1300
     38 H10         0.4539   -1.1213    8.2732 H         1 <0>         0.1303
     39 H11         2.3545   -1.7147    7.8578 H         1 <0>         0.0567
     40 H12         1.1512   -3.0230    7.9519 H         1 <0>         0.0571
     41 H13         2.7191   -3.3111    7.1600 H         1 <0>         0.1007
     42 H14        -1.4388    1.2381    1.9935 H         1 <0>         0.1270
     43 H15         0.8305    2.1730    2.3955 H         1 <0>         0.0974
     44 H16        -0.5503    3.9631    3.0617 H         1 <0>         0.0730
     45 H17        -1.4672    2.9445    4.2225 H         1 <0>         0.0830
     46 H18         1.2201    4.3088    4.5763 H         1 <0>         0.0722
     47 H19        -0.0422    3.9700    5.8001 H         1 <0>         0.0690
     48 H20         1.7667    2.1377    6.2171 H         1 <0>         0.1188
     49 H21         1.4462    0.3840    4.4260 H         1 <0>         0.1334
     50 H22        -2.0469   -2.2163   -2.1167 H         1 <0>         0.0660
     51 H23        -1.4593   -3.7378   -1.4041 H         1 <0>         0.0596
     52 H24        -1.9455   -2.3899   -0.3481 H         1 <0>         0.0575
     53 H25         1.6302   -2.1089   -2.6801 H         1 <0>         0.0628
     54 H26         0.6213   -3.5729   -2.7646 H         1 <0>         0.0631
     55 H27         0.0401   -2.0492   -3.4778 H         1 <0>         0.0742
@<TRIPOS>BOND
     1    1    2 1
     2    1   29 1
     3    1   30 1
     4    1   31 1
     5    2    7 1
     6    2    3 2
     7    3    4 1
     8    3   32 1
     9    4    5 1
    10    4   27 1
    11    4   28 1
    12    5    6 1
    13    5   33 1
    14    6   11 ar
    15    6    7 ar
    16    7    8 ar
    17    8   21 1
    18    8    9 ar
    19    9   10 ar
    20    9   12 1
    21   10   11 ar
    22   10   34 1
    23   11   35 1
    24   12   17 ar
    25   12   13 ar
    26   13   14 ar
    27   13   20 1
    28   14   15 ar
    29   14   36 1
    30   15   16 ar
    31   15   37 1
    32   16   17 ar
    33   16   38 1
    34   17   18 1
    35   18   19 1
    36   19   39 1
    37   19   40 1
    38   19   41 1
    39   20   21 1
    40   21   22 1
    41   21   42 1
    42   22   26 1
    43   22   23 1
    44   22   43 1
    45   23   24 1
    46   23   44 1
    47   23   45 1
    48   24   25 1
    49   24   46 1
    50   24   47 1
    51   25   26 2
    52   25   48 1
    53   26   49 1
    54   27   50 1
    55   27   51 1
    56   27   52 1
    57   28   53 1
    58   28   54 1
    59   28   55 1
@<TRIPOS>MOLECULE
CHEMBL519240
   51    55     0     0     0
SMALL
USER_CHARGES

@<TRIPOS>ATOM
      1 C1         -0.0518    1.5017   -0.1148 C.3       1 <0>        -0.1240
      2 C2          1.3896    2.0009   -0.1884 C.3       1 <0>        -0.1233
      3 C3          2.1792    1.5324    1.0162 C.3       1 <0>        -0.1236
      4 C4          2.0195    0.0939    1.3795 C.3       1 <0>         0.0936
      5 H1          2.2717   -0.0155    2.4343 H         1 <0>         0.0954
      6 C5          0.6350   -0.5290    1.1646 C.3       1 <0>        -0.0591
      7 H2         -0.0167   -0.3840    2.0262 H         1 <0>         0.1072
      8 C6         -0.0335   -0.0263   -0.0957 C.3       1 <0>        -0.1163
      9 C7          1.0170   -1.9803    0.9762 C.2       1 <0>        -0.3344
     10 C8          2.3328   -2.0225    0.6739 C.2       1 <0>         0.2511
     11 O1          2.8682   -0.7933    0.6365 O.3       1 <0>        -0.2589
     12 C9          3.0235   -3.3350    0.3757 C.3       1 <0>        -0.0898
     13 C10         2.3849   -4.4569    1.1913 C.3       1 <0>        -0.0540
     14 C11         0.8856   -4.4170    1.1377 C.ar      1 <0>        -0.2237
     15 C12         0.2049   -3.1948    1.0601 C.ar      1 <0>         0.3605
     16 N1         -1.1238   -3.1799    1.0574 N.ar      1 <0>        -0.5496
     17 C13        -1.8045   -4.3176    1.0919 C.ar      1 <0>         0.6483
     18 N2         -1.1964   -5.4936    1.1387 N.ar      1 <0>        -0.5521
     19 C14         0.1326   -5.5842    1.1657 C.ar      1 <0>         0.5268
     20 N3          0.7537   -6.8224    1.2213 N.pl3     1 <0>        -0.6706
     21 C15         1.1158   -7.4297    2.5114 C.3       1 <0>         0.1172
     22 C16         0.5808   -8.8652    2.5396 C.3       1 <0>        -0.0241
     23 N4          1.0770   -9.5946    1.3658 N.4       1 <0>        -0.5044
     24 C17         0.5361   -8.9955    0.1392 C.3       1 <0>        -0.0241
     25 C18         1.0638   -7.5690   -0.0077 C.3       1 <0>         0.1164
     26 N5         -3.1878   -4.2751    1.0794 N.pl3     1 <0>        -0.7861
     27 H3         -0.5233    1.8744    0.7945 H         1 <0>         0.0723
     28 H4         -0.6061    1.8511   -0.9859 H         1 <0>         0.0790
     29 H5          1.8567    1.6173   -1.0955 H         1 <0>         0.0679
     30 H6          1.3913    3.0905   -0.2174 H         1 <0>         0.0831
     31 H7          3.2358    1.7200    0.8248 H         1 <0>         0.0919
     32 H8          1.8815    2.1354    1.8741 H         1 <0>         0.0970
     33 H9         -1.0557   -0.4014   -0.1447 H         1 <0>         0.0613
     34 H10         0.5270   -0.3925   -0.9558 H         1 <0>         0.0705
     35 H11         2.9287   -3.5606   -0.6864 H         1 <0>         0.1212
     36 H12         4.0793   -3.2553    0.6345 H         1 <0>         0.1271
     37 H13         2.7271   -5.4157    0.8020 H         1 <0>         0.1112
     38 H14         2.7040   -4.3648    2.2295 H         1 <0>         0.1008
     39 H15         2.2003   -7.4408    2.6194 H         1 <0>         0.1031
     40 H16         0.6696   -6.8565    3.3241 H         1 <0>         0.1198
     41 H17         0.9220   -9.3625    3.4475 H         1 <0>         0.1503
     42 H18        -0.5090   -8.8474    2.5225 H         1 <0>         0.1373
     43 H19         2.0848   -9.5495    1.3446 H         1 <0>         0.4310
     44 H20         0.8444   -9.5888   -0.7216 H         1 <0>         0.1504
     45 H21        -0.5523   -8.9737    0.1947 H         1 <0>         0.1374
     46 H22         0.5833   -7.0878   -0.8596 H         1 <0>         0.1202
     47 H23         2.1430   -7.5944   -0.1584 H         1 <0>         0.1025
     48 H24        -3.6465   -3.4211    1.0456 H         1 <0>         0.4335
     49 H25        -3.6986   -5.0994    1.1043 H         1 <0>         0.4469
     50 H26         0.7871  -10.5594    1.4236 H         1 <0>         0.4402
     51 H27        -1.5976   -2.3339    1.0303 H         1 <0>         0.4460
@<TRIPOS>BOND
     1    1    8 1
     2    1    2 1
     3    1   27 1
     4    1   28 1
     5    2    3 1
     6    2   29 1
     7    2   30 1
     8    3    4 1
     9    3   31 1
    10    3   32 1
    11    4    5 1
    12    4   11 1
    13    4    6 1
    14    6    7 1
    15    6    8 1
    16    6    9 1
    17    8   33 1
    18    8   34 1
    19    9   15 1
    20    9   10 2
    21   10   11 1
    22   10   12 1
    23   12   13 1
    24   12   35 1
    25   12   36 1
    26   13   14 1
    27   13   37 1
    28   13   38 1
    29   14   19 ar
    30   14   15 ar
    31   15   16 ar
    32   16   17 ar
    33   16   51 1
    34   17   18 ar
    35   17   26 1
    36   18   19 ar
    37   19   20 1
    38   20   25 1
    39   20   21 1
    40   21   22 1
    41   21   39 1
    42   21   40 1
    43   22   23 1
    44   22   41 1
    45   22   42 1
    46   23   24 1
    47   23   43 1
    48   23   50 1
    49   24   25 1
    50   24   44 1
    51   24   45 1
    52   25   46 1
    53   25   47 1
    54   26   48 1
    55   26   49 1
@<TRIPOS>MOLECULE
CHEMBL519240__1
   50    54     0     0     0
SMALL
USER_CHARGES

@<TRIPOS>ATOM
      1 C1         -0.0518    1.5017   -0.1148 C.3       1 <0>        -0.1220
      2 C2          1.3896    2.0009   -0.1884 C.3       1 <0>        -0.1192
      3 C3          2.1792    1.5324    1.0162 C.3       1 <0>        -0.1147
      4 C4          2.0195    0.0939    1.3795 C.3       1 <0>         0.0898
      5 H1          2.2717   -0.0155    2.4343 H         1 <0>         0.0758
      6 C5          0.6350   -0.5290    1.1646 C.3       1 <0>        -0.0477
      7 H2         -0.0167   -0.3840    2.0262 H         1 <0>         0.0960
      8 C6         -0.0335   -0.0263   -0.0957 C.3       1 <0>        -0.1049
      9 C7          1.0170   -1.9803    0.9762 C.2       1 <0>        -0.2453
     10 C8          2.3328   -2.0225    0.6739 C.2       1 <0>         0.1401
     11 O1          2.8682   -0.7933    0.6365 O.3       1 <0>        -0.2869
     12 C9          3.0235   -3.3350    0.3757 C.3       1 <0>        -0.0663
     13 C10         2.3849   -4.4569    1.1913 C.3       1 <0>        -0.0450
     14 C11         0.8856   -4.4170    1.1377 C.ar      1 <0>        -0.2541
     15 C12         0.2049   -3.1948    1.0601 C.ar      1 <0>         0.3245
     16 N1         -1.1238   -3.1799    1.0574 N.ar      1 <0>        -0.5564
     17 C13        -1.8045   -4.3176    1.0919 C.ar      1 <0>         0.5906
     18 N2         -1.1964   -5.4936    1.1387 N.ar      1 <0>        -0.6006
     19 C14         0.1326   -5.5842    1.1657 C.ar      1 <0>         0.4501
     20 N3          0.7537   -6.8224    1.2213 N.pl3     1 <0>        -0.6608
     21 C15         1.1158   -7.4297    2.5114 C.3       1 <0>         0.1219
     22 C16         0.5808   -8.8652    2.5396 C.3       1 <0>        -0.0241
     23 N4          1.0770   -9.5946    1.3658 N.4       1 <0>        -0.5018
     24 C17         0.5361   -8.9955    0.1392 C.3       1 <0>        -0.0239
     25 C18         1.0638   -7.5690   -0.0077 C.3       1 <0>         0.1212
     26 N5         -3.1878   -4.2751    1.0794 N.pl3     1 <0>        -0.8176
     27 H3         -0.5233    1.8744    0.7945 H         1 <0>         0.0664
     28 H4         -0.6061    1.8511   -0.9859 H         1 <0>         0.0695
     29 H5          1.8567    1.6173   -1.0955 H         1 <0>         0.0639
     30 H6          1.3913    3.0905   -0.2174 H         1 <0>         0.0723
     31 H7          3.2358    1.7200    0.8248 H         1 <0>         0.0806
     32 H8          1.8815    2.1354    1.8741 H         1 <0>         0.0857
     33 H9         -1.0557   -0.4014   -0.1447 H         1 <0>         0.0725
     34 H10         0.5270   -0.3925   -0.9558 H         1 <0>         0.0586
     35 H11         2.9287   -3.5606   -0.6864 H         1 <0>         0.0972
     36 H12         4.0793   -3.2553    0.6345 H         1 <0>         0.1003
     37 H13         2.7271   -5.4157    0.8020 H         1 <0>         0.0853
     38 H14         2.7040   -4.3648    2.2295 H         1 <0>         0.0768
     39 H15         2.2003   -7.4408    2.6194 H         1 <0>         0.0885
     40 H16         0.6696   -6.8565    3.3241 H         1 <0>         0.1147
     41 H17         0.9220   -9.3625    3.4475 H         1 <0>         0.1413
     42 H18        -0.5090   -8.8474    2.5225 H         1 <0>         0.1345
     43 H19         2.0848   -9.5495    1.3446 H         1 <0>         0.4272
     44 H20         0.8444   -9.5888   -0.7216 H         1 <0>         0.1416
     45 H21        -0.5523   -8.9737    0.1947 H         1 <0>         0.1346
     46 H22         0.5833   -7.0878   -0.8596 H         1 <0>         0.1152
     47 H23         2.1430   -7.5944   -0.1584 H         1 <0>         0.0877
     48 H24        -3.6465   -3.4211    1.0456 H         1 <0>         0.4194
     49 H25        -3.6986   -5.0994    1.1043 H         1 <0>         0.4149
     50 H26         0.7871  -10.5594    1.4236 H         1 <0>         0.4326
@<TRIPOS>BOND
     1    1    8 1
     2    1    2 1
     3    1   27 1
     4    1   28 1
     5    2    3 1
     6    2   29 1
     7    2   30 1
     8    3    4 1
     9    3   31 1
    10    3   32 1
    11    4    5 1
    12    4   11 1
    13    4    6 1
    14    6    7 1
    15    6    8 1
    16    6    9 1
    17    8   33 1
    18    8   34 1
    19    9   15 1
    20    9   10 2
    21   10   11 1
    22   10   12 1
    23   12   13 1
    24   12   35 1
    25   12   36 1
    26   13   14 1
    27   13   37 1
    28   13   38 1
    29   14   19 ar
    30   14   15 ar
    31   15   16 ar
    32   16   17 ar
    33   17   18 ar
    34   17   26 1
    35   18   19 ar
    36   19   20 1
    37   20   25 1
    38   20   21 1
    39   21   22 1
    40   21   39 1
    41   21   40 1
    42   22   23 1
    43   22   41 1
    44   22   42 1
    45   23   24 1
    46   23   43 1
    47   23   50 1
    48   24   25 1
    49   24   44 1
    50   24   45 1
    51   25   46 1
    52   25   47 1
    53   26   48 1
    54   26   49 1
@<TRIPOS>MOLECULE
CHEMBL519240__2
   51    55     0     0     0
SMALL
USER_CHARGES

@<TRIPOS>ATOM
      1 C1         -0.0530    1.5009   -0.1188 C.3       1 <0>        -0.1241
      2 C2          1.3884    2.0000   -0.1944 C.3       1 <0>        -0.1226
      3 C3          2.1794    1.5322    1.0096 C.3       1 <0>        -0.1211
      4 C4          2.0201    0.0940    1.3739 C.3       1 <0>         0.0885
      5 H1          2.2735   -0.0148    2.4285 H         1 <0>         0.0910
      6 C5          0.6353   -0.5290    1.1610 C.3       1 <0>        -0.0474
      7 H2         -0.0154   -0.3835    2.0233 H         1 <0>         0.1079
      8 C6         -0.0346   -0.0270   -0.0987 C.3       1 <0>        -0.1091
      9 C7          1.0170   -1.9805    0.9730 C.2       1 <0>        -0.2880
     10 C8          2.3324   -2.0229    0.6692 C.2       1 <0>         0.2249
     11 O1          2.8679   -0.7937    0.6305 O.3       1 <0>        -0.2629
     12 C9          3.0227   -3.3356    0.3710 C.3       1 <0>        -0.0848
     13 C10         2.3850   -4.4570    1.1880 C.3       1 <0>        -0.0597
     14 C11         0.8856   -4.4170    1.1361 C.ar      1 <0>        -0.1763
     15 C12         0.2049   -3.1948    1.0586 C.ar      1 <0>         0.3893
     16 N1         -1.1238   -3.1799    1.0574 N.ar      1 <0>        -0.5112
     17 C13        -1.8045   -4.3176    1.0935 C.ar      1 <0>         0.6478
     18 N2         -1.1964   -5.4935    1.1402 N.ar      1 <0>        -0.5789
     19 C14         0.1326   -5.5842    1.1657 C.ar      1 <0>         0.4358
     20 N3          0.7537   -6.8224    1.2213 N.pl3     1 <0>        -0.6731
     21 C15         1.1158   -7.4297    2.5114 C.3       1 <0>         0.1064
     22 C16         0.5808   -8.8652    2.5396 C.3       1 <0>        -0.0246
     23 N4          1.0770   -9.5946    1.3658 N.4       1 <0>        -0.5057
     24 C17         0.5361   -8.9955    0.1392 C.3       1 <0>        -0.0245
     25 C18         1.0638   -7.5690   -0.0077 C.3       1 <0>         0.1048
     26 N5         -3.1878   -4.2750    1.0825 N.pl3     1 <0>        -0.7858
     27 H3         -0.5234    1.8742    0.7909 H         1 <0>         0.0704
     28 H4         -0.6083    1.8498   -0.9894 H         1 <0>         0.0754
     29 H5          1.8544    1.6159   -1.1017 H         1 <0>         0.0659
     30 H6          1.3901    3.0896   -0.2240 H         1 <0>         0.0797
     31 H7          3.2357    1.7197    0.8169 H         1 <0>         0.0881
     32 H8          1.8828    2.1357    1.8674 H         1 <0>         0.0950
     33 H9         -1.0570   -0.4021   -0.1463 H         1 <0>         0.0741
     34 H10         0.5248   -0.3938   -0.9593 H         1 <0>         0.0610
     35 H11         2.9266   -3.5619   -0.6909 H         1 <0>         0.1187
     36 H12         4.0788   -3.2558    0.6285 H         1 <0>         0.1259
     37 H13         2.7267   -5.4161    0.7988 H         1 <0>         0.1069
     38 H14         2.7053   -4.3643    2.2258 H         1 <0>         0.1056
     39 H15         2.2003   -7.4408    2.6194 H         1 <0>         0.1105
     40 H16         0.6696   -6.8565    3.3241 H         1 <0>         0.1251
     41 H17         0.9220   -9.3625    3.4475 H         1 <0>         0.1558
     42 H18        -0.5090   -8.8474    2.5225 H         1 <0>         0.1333
     43 H19         2.0848   -9.5495    1.3446 H         1 <0>         0.4347
     44 H20         0.8444   -9.5888   -0.7216 H         1 <0>         0.1561
     45 H21        -0.5523   -8.9737    0.1947 H         1 <0>         0.1330
     46 H22         0.5833   -7.0878   -0.8596 H         1 <0>         0.1249
     47 H23         2.1430   -7.5944   -0.1584 H         1 <0>         0.1103
     48 H24        -3.6465   -3.4210    1.0488 H         1 <0>         0.4503
     49 H25        -3.6987   -5.0992    1.1085 H         1 <0>         0.4297
     50 H26         0.7871  -10.5594    1.4236 H         1 <0>         0.4428
     51 H27        -1.7289   -6.3042    1.1559 H         1 <0>         0.4302
@<TRIPOS>BOND
     1    1    8 1
     2    1    2 1
     3    1   27 1
     4    1   28 1
     5    2    3 1
     6    2   29 1
     7    2   30 1
     8    3    4 1
     9    3   31 1
    10    3   32 1
    11    4    5 1
    12    4   11 1
    13    4    6 1
    14    6    7 1
    15    6    8 1
    16    6    9 1
    17    8   33 1
    18    8   34 1
    19    9   15 1
    20    9   10 2
    21   10   11 1
    22   10   12 1
    23   12   13 1
    24   12   35 1
    25   12   36 1
    26   13   14 1
    27   13   37 1
    28   13   38 1
    29   14   19 ar
    30   14   15 ar
    31   15   16 ar
    32   16   17 ar
    33   17   18 ar
    34   17   26 1
    35   18   19 ar
    36   18   51 1
    37   19   20 1
    38   20   25 1
    39   20   21 1
    40   21   22 1
    41   21   39 1
    42   21   40 1
    43   22   23 1
    44   22   41 1
    45   22   42 1
    46   23   24 1
    47   23   43 1
    48   23   50 1
    49   24   25 1
    50   24   44 1
    51   24   45 1
    52   25   46 1
    53   25   47 1
    54   26   48 1
    55   26   49 1
@<TRIPOS>MOLECULE
CHEMBL144841
   69    74     0     0     0
SMALL
USER_CHARGES

@<TRIPOS>ATOM
      1 C1          0.7851    3.0768    2.6043 C.3       1 <0>        -0.1515
      2 C2          0.7867    1.6258    2.1191 C.3       1 <0>        -0.1210
      3 C3          1.2977    0.7148    3.2371 C.3       1 <0>        -0.1094
      4 C4          1.2994   -0.7362    2.7519 C.3       1 <0>         0.2163
      5 H1          1.8649   -0.8254    1.8244 H         1 <0>         0.0738
      6 O1         -0.0530   -1.2058    2.5641 O.3       1 <0>        -0.3601
      7 C5          0.0492   -2.6426    2.6237 C.3       1 <0>         0.0715
      8 H2          0.1018   -3.0872    1.6299 H         1 <0>         0.0940
      9 C6         -1.1430   -3.1935    3.4369 C.3       1 <0>        -0.1317
     10 C7         -0.4966   -4.2406    4.3623 C.3       1 <0>        -0.0761
     11 C8         -1.3861   -4.6164    5.5233 C.3       1 <0>        -0.0909
     12 C9         -2.7376   -5.1143    5.0035 C.3       1 <0>        -0.1191
     13 C10        -3.5747   -5.6510    6.1685 C.3       1 <0>        -0.0939
     14 C11        -3.6816   -4.5563    7.2136 C.2       1 <0>        -0.0308
     15 C12        -4.8794   -4.2114    7.6646 C.2       1 <0>        -0.2208
     16 C13        -5.0222   -3.1397    8.6624 C.2       1 <0>         0.4077
     17 O2         -6.1159   -2.8456    9.1075 O.2       1 <0>        -0.4563
     18 C14        -3.8115   -2.4305    9.1098 C.2       1 <0>        -0.2080
     19 C15        -2.6250   -2.7971    8.6513 C.2       1 <0>        -0.0706
     20 C16        -2.4119   -3.9160    7.6906 C.3       1 <0>        -0.0312
     21 C17        -1.5949   -3.4455    6.4828 C.3       1 <0>         0.1604
     22 C18        -0.2248   -2.9650    6.9749 C.3       1 <0>         0.0894
     23 H3         -0.3579   -2.1605    7.6982 H         1 <0>         0.0699
     24 C19         0.5743   -2.4519    5.7807 C.3       1 <0>        -0.1278
     25 C20         0.8286   -3.5823    4.7799 C.3       1 <0>        -0.0096
     26 C21         1.3329   -2.9143    3.4479 C.3       1 <0>         0.0991
     27 O3          1.8520   -1.6047    3.7639 O.3       1 <0>        -0.3222
     28 S1          2.5275   -3.9404    2.5474 S.3       1 <0>        -0.0676
     29 C22         3.9723   -3.8961    3.5550 C.ar      1 <0>         0.1261
     30 C23         5.0466   -4.7298    3.2576 C.ar      1 <0>        -0.1491
     31 C24         6.1741   -4.6845    4.0567 C.ar      1 <0>        -0.0613
     32 C25         6.1906   -3.8039    5.1309 C.ar      1 <0>        -0.1735
     33 C26         5.0898   -3.0056    5.3679 C.ar      1 <0>         0.1071
     34 N1          4.0289   -3.0658    4.5855 N.ar      1 <0>        -0.4523
     35 C27         1.8221   -4.6084    5.3284 C.3       1 <0>        -0.1615
     36 O4          0.4714   -4.0512    7.5894 O.3       1 <0>        -0.5416
     37 F1         -2.2726   -2.4121    5.8271 F         1 <0>        -0.1830
     38 C28        -1.5842   -4.9902    8.3990 C.3       1 <0>        -0.1340
     39 H4          1.7989    3.3699    2.8770 H         1 <0>         0.0541
     40 H5          0.4210    3.7258    1.8078 H         1 <0>         0.0573
     41 H6          0.1341    3.1685    3.4737 H         1 <0>         0.0557
     42 H7         -0.2271    1.3327    1.8464 H         1 <0>         0.0710
     43 H8          1.4377    1.5341    1.2497 H         1 <0>         0.0620
     44 H9          2.3115    1.0079    3.5098 H         1 <0>         0.0831
     45 H10         0.6467    0.8064    4.1066 H         1 <0>         0.0789
     46 H11        -1.6078   -2.3998    4.0218 H         1 <0>         0.1108
     47 H12        -1.8728   -3.6630    2.7774 H         1 <0>         0.0821
     48 H13        -0.2812   -5.1403    3.7859 H         1 <0>         0.0853
     49 H14        -0.9180   -5.4352    6.0698 H         1 <0>         0.1079
     50 H15        -3.2678   -4.2906    4.5255 H         1 <0>         0.0757
     51 H16        -2.5755   -5.9103    4.2767 H         1 <0>         0.0803
     52 H17        -4.5696   -5.9201    5.8138 H         1 <0>         0.0847
     53 H18        -3.0877   -6.5256    6.5998 H         1 <0>         0.0882
     54 H19        -5.7576   -4.7210    7.2965 H         1 <0>         0.1387
     55 H20        -3.8916   -1.6126    9.8105 H         1 <0>         0.1407
     56 H21        -1.7584   -2.2513    8.9942 H         1 <0>         0.1268
     57 H22         0.0155   -1.6554    5.2895 H         1 <0>         0.0832
     58 H23         1.5293   -2.0585    6.1292 H         1 <0>         0.0837
     59 H24         5.0000   -5.4031    2.4144 H         1 <0>         0.1369
     60 H25         7.0228   -5.3199    3.8506 H         1 <0>         0.1391
     61 H26         7.0560   -3.7447    5.7743 H         1 <0>         0.1363
     62 H27         5.0986   -2.3196    6.2021 H         1 <0>         0.1569
     63 H28         2.1535   -5.2610    4.5207 H         1 <0>         0.0601
     64 H29         2.6821   -4.0905    5.7530 H         1 <0>         0.0706
     65 H30         1.3386   -5.2047    6.1022 H         1 <0>         0.0829
     66 H31         1.3479   -3.8174    7.9243 H         1 <0>         0.3789
     67 H32        -1.1732   -5.6782    7.6603 H         1 <0>         0.0791
     68 H33        -0.7698   -4.5179    8.9484 H         1 <0>         0.0949
     69 H34        -2.2200   -5.5398    9.0932 H         1 <0>         0.0538
@<TRIPOS>BOND
     1    1    2 1
     2    1   39 1
     3    1   40 1
     4    1   41 1
     5    2    3 1
     6    2   42 1
     7    2   43 1
     8    3    4 1
     9    3   44 1
    10    3   45 1
    11    4    5 1
    12    4   27 1
    13    4    6 1
    14    6    7 1
    15    7    8 1
    16    7   26 1
    17    7    9 1
    18    9   10 1
    19    9   46 1
    20    9   47 1
    21   10   25 1
    22   10   11 1
    23   10   48 1
    24   11   21 1
    25   11   12 1
    26   11   49 1
    27   12   13 1
    28   12   50 1
    29   12   51 1
    30   13   14 1
    31   13   52 1
    32   13   53 1
    33   14   20 1
    34   14   15 2
    35   15   16 1
    36   15   54 1
    37   16   17 2
    38   16   18 1
    39   18   19 2
    40   18   55 1
    41   19   20 1
    42   19   56 1
    43   20   21 1
    44   20   38 1
    45   21   22 1
    46   21   37 1
    47   22   23 1
    48   22   24 1
    49   22   36 1
    50   24   25 1
    51   24   57 1
    52   24   58 1
    53   25   26 1
    54   25   35 1
    55   26   27 1
    56   26   28 1
    57   28   29 1
    58   29   34 ar
    59   29   30 ar
    60   30   31 ar
    61   30   59 1
    62   31   32 ar
    63   31   60 1
    64   32   33 ar
    65   32   61 1
    66   33   34 ar
    67   33   62 1
    68   35   63 1
    69   35   64 1
    70   35   65 1
    71   36   66 1
    72   38   67 1
    73   38   68 1
    74   38   69 1
@<TRIPOS>MOLECULE
CHEMBL144841__1
   69    74     0     0     0
SMALL
USER_CHARGES

@<TRIPOS>ATOM
      1 C1          0.2565    1.1437    1.3973 C.3       1 <0>        -0.1512
      2 C2          0.2326   -0.3726    1.1948 C.3       1 <0>        -0.1188
      3 C3          0.7814   -1.0628    2.4451 C.3       1 <0>        -0.1308
      4 C4          0.7575   -2.5792    2.2426 C.3       1 <0>         0.2300
      5 H1          1.2902   -2.8318    1.3258 H         1 <0>         0.0816
      6 O1         -0.5967   -3.0259    2.1456 O.3       1 <0>        -0.3647
      7 C5         -0.8248   -3.9893    3.1794 C.3       1 <0>         0.0800
      8 H2         -1.3708   -4.8592    2.8144 H         1 <0>         0.1171
      9 C6         -1.5410   -3.3127    4.3748 C.3       1 <0>        -0.1326
     10 C7         -1.0208   -4.1470    5.5618 C.3       1 <0>        -0.0714
     11 C8         -1.3682   -3.5575    6.8961 C.3       1 <0>        -0.0791
     12 C9         -1.5072   -4.6467    7.9519 C.3       1 <0>        -0.1245
     13 C10        -2.1395   -4.1043    9.2182 C.3       1 <0>        -0.0842
     14 C11        -1.6210   -2.7503    9.5846 C.2       1 <0>        -0.0261
     15 C12        -1.9797   -2.2275   10.7814 C.2       1 <0>        -0.2378
     16 C13        -1.4632   -0.8576   11.0473 C.2       1 <0>         0.4143
     17 O2         -1.0309   -0.5201   12.1336 O.2       1 <0>        -0.4482
     18 C14        -1.5151    0.0684    9.8828 C.2       1 <0>        -0.2180
     19 C15        -1.1610   -0.4798    8.6996 C.2       1 <0>        -0.0850
     20 C16        -0.7382   -1.9216    8.7155 C.3       1 <0>        -0.0309
     21 C17        -0.4249   -2.4723    7.3567 C.3       1 <0>         0.1709
     22 C18         1.0185   -2.9777    7.2790 C.3       1 <0>         0.0797
     23 H3          1.6968   -2.2193    7.6700 H         1 <0>         0.0817
     24 C19         1.3385   -3.2505    5.8097 C.3       1 <0>        -0.1354
     25 C20         0.4575   -4.3760    5.2684 C.3       1 <0>        -0.0091
     26 C21         0.5871   -4.3615    3.7029 C.3       1 <0>         0.1014
     27 O3          1.3906   -3.2185    3.3534 O.3       1 <0>        -0.3243
     28 S1          1.2085   -5.9169    3.0064 S.3       1 <0>        -0.0593
     29 C22         2.8772   -5.9982    3.5664 C.ar      1 <0>         0.1273
     30 C23         3.6247   -7.1508    3.3422 C.ar      1 <0>        -0.1505
     31 C24         4.9329   -7.2008    3.7871 C.ar      1 <0>        -0.0591
     32 C25         5.4527   -6.0926    4.4440 C.ar      1 <0>        -0.1752
     33 C26         4.6549   -4.9821    4.6322 C.ar      1 <0>         0.1088
     34 N1          3.4110   -4.9599    4.1922 N.ar      1 <0>        -0.4590
     35 C27         0.9105   -5.7251    5.8301 C.3       1 <0>        -0.1669
     36 O4          1.1511   -4.1822    8.0363 O.3       1 <0>        -0.5407
     37 F1         -0.5310   -1.4162    6.4453 F         1 <0>        -0.1977
     38 C28         0.6112   -1.9126    9.4366 C.3       1 <0>        -0.1718
     39 H4          1.2814    1.4708    1.5726 H         1 <0>         0.0533
     40 H5         -0.1345    1.6355    0.5065 H         1 <0>         0.0560
     41 H6         -0.3605    1.4052    2.2570 H         1 <0>         0.0547
     42 H7         -0.7923   -0.6997    1.0194 H         1 <0>         0.0701
     43 H8          0.8496   -0.6341    0.3351 H         1 <0>         0.0608
     44 H9          1.8063   -0.7358    2.6205 H         1 <0>         0.0786
     45 H10         0.1644   -0.8013    3.3048 H         1 <0>         0.0753
     46 H11        -1.2412   -2.2691    4.4699 H         1 <0>         0.0936
     47 H12        -2.6236   -3.3994    4.2813 H         1 <0>         0.0852
     48 H13        -1.5127   -5.1182    5.5075 H         1 <0>         0.0791
     49 H14        -2.3528   -3.1010    6.7952 H         1 <0>         0.0769
     50 H15        -2.1297   -5.4496    7.5572 H         1 <0>         0.0713
     51 H16        -0.5199   -5.0441    8.1874 H         1 <0>         0.1080
     52 H17        -3.2181   -4.0415    9.0744 H         1 <0>         0.0831
     53 H18        -1.9347   -4.7936   10.0374 H         1 <0>         0.0863
     54 H19        -2.5943   -2.7641   11.4890 H         1 <0>         0.1518
     55 H20        -1.8135    1.1021    9.9768 H         1 <0>         0.1524
     56 H21        -1.1813    0.0924    7.7839 H         1 <0>         0.1496
     57 H22         1.1620   -2.3450    5.2292 H         1 <0>         0.0929
     58 H23         2.3859   -3.5377    5.7171 H         1 <0>         0.0914
     59 H24         3.1888   -7.9946    2.8282 H         1 <0>         0.1372
     60 H25         5.5370   -8.0818    3.6279 H         1 <0>         0.1393
     61 H26         6.4709   -6.1000    4.8040 H         1 <0>         0.1364
     62 H27         5.0552   -4.1185    5.1424 H         1 <0>         0.1568
     63 H28         0.3295   -6.5240    5.3693 H         1 <0>         0.0614
     64 H29         1.9682   -5.8728    5.6120 H         1 <0>         0.0584
     65 H30         0.7565   -5.7397    6.9090 H         1 <0>         0.0916
     66 H31         2.0431   -4.5555    8.0285 H         1 <0>         0.3786
     67 H32         1.0031   -2.9285    9.4868 H         1 <0>         0.1033
     68 H33         1.3108   -1.2799    8.8904 H         1 <0>         0.0677
     69 H34         0.4810   -1.5230   10.4462 H         1 <0>         0.0581
@<TRIPOS>BOND
     1    1    2 1
     2    1   39 1
     3    1   40 1
     4    1   41 1
     5    2    3 1
     6    2   42 1
     7    2   43 1
     8    3    4 1
     9    3   44 1
    10    3   45 1
    11    4    5 1
    12    4   27 1
    13    4    6 1
    14    6    7 1
    15    7    8 1
    16    7   26 1
    17    7    9 1
    18    9   10 1
    19    9   46 1
    20    9   47 1
    21   10   25 1
    22   10   11 1
    23   10   48 1
    24   11   21 1
    25   11   12 1
    26   11   49 1
    27   12   13 1
    28   12   50 1
    29   12   51 1
    30   13   14 1
    31   13   52 1
    32   13   53 1
    33   14   20 1
    34   14   15 2
    35   15   16 1
    36   15   54 1
    37   16   17 2
    38   16   18 1
    39   18   19 2
    40   18   55 1
    41   19   20 1
    42   19   56 1
    43   20   21 1
    44   20   38 1
    45   21   22 1
    46   21   37 1
    47   22   23 1
    48   22   24 1
    49   22   36 1
    50   24   25 1
    51   24   57 1
    52   24   58 1
    53   25   26 1
    54   25   35 1
    55   26   27 1
    56   26   28 1
    57   28   29 1
    58   29   34 ar
    59   29   30 ar
    60   30   31 ar
    61   30   59 1
    62   31   32 ar
    63   31   60 1
    64   32   33 ar
    65   32   61 1
    66   33   34 ar
    67   33   62 1
    68   35   63 1
    69   35   64 1
    70   35   65 1
    71   36   66 1
    72   38   67 1
    73   38   68 1
    74   38   69 1
@<TRIPOS>MOLECULE
CHEMBL144841__2
   69    74     0     0     0
SMALL
USER_CHARGES

@<TRIPOS>ATOM
      1 C1          1.3203    2.0106    1.3947 C.3       1 <0>        -0.1517
      2 C2          1.1733    0.5206    1.0799 C.3       1 <0>        -0.1202
      3 C3          1.7424   -0.3036    2.2365 C.3       1 <0>        -0.1103
      4 C4          1.5955   -1.7936    1.9217 C.3       1 <0>         0.2183
      5 H1          2.0490   -2.0242    0.9578 H         1 <0>         0.0750
      6 O1          0.2037   -2.1741    1.9269 O.3       1 <0>        -0.3617
      7 C5          0.2067   -3.5990    2.1506 C.3       1 <0>         0.0719
      8 H2          0.0770   -4.1646    1.2279 H         1 <0>         0.0997
      9 C6         -0.8922   -3.9208    3.2001 C.3       1 <0>        -0.1100
     10 C7         -0.1548   -3.7655    4.5344 C.3       1 <0>        -0.0821
     11 C8         -0.7624   -4.5055    5.7126 C.3       1 <0>        -0.0969
     12 C9         -2.1505   -3.9404    6.0202 C.3       1 <0>        -0.1167
     13 C10        -2.7760   -4.7132    7.1857 C.3       1 <0>        -0.0942
     14 C11        -1.8145   -4.6581    8.3581 C.2       1 <0>        -0.0307
     15 C12        -2.2642   -4.2599    9.5399 C.2       1 <0>        -0.2214
     16 C13        -1.3570   -4.1732   10.6948 C.2       1 <0>         0.4079
     17 O2         -1.7737   -3.8452   11.7901 O.2       1 <0>        -0.4569
     18 C14         0.0666   -4.4928   10.4954 C.2       1 <0>        -0.2100
     19 C15         0.4919   -4.8953    9.3082 C.2       1 <0>        -0.0684
     20 C16        -0.3900   -5.0632    8.1188 C.3       1 <0>        -0.0303
     21 C17         0.1632   -4.2872    6.9200 C.3       1 <0>         0.1616
     22 C18         1.5865   -4.7537    6.6297 C.3       1 <0>         0.0858
     23 H3          2.2243   -4.4974    7.4756 H         1 <0>         0.0674
     24 C19         2.1501   -4.0971    5.3596 C.3       1 <0>        -0.1271
     25 C20         1.2076   -4.4395    4.2214 C.3       1 <0>        -0.0386
     26 C21         1.5756   -3.8846    2.8364 C.3       1 <0>         0.1115
     27 O3          2.1970   -2.5903    2.9648 O.3       1 <0>        -0.3208
     28 S1          2.5858   -5.0455    1.8759 S.3       1 <0>        -0.0707
     29 C22         4.1503   -5.0203    2.6861 C.ar      1 <0>         0.1235
     30 C23         5.1302   -5.9398    2.3228 C.ar      1 <0>        -0.1487
     31 C24         6.3533   -5.9086    2.9669 C.ar      1 <0>        -0.0602
     32 C25         6.5574   -4.9556    3.9567 C.ar      1 <0>        -0.1743
     33 C26         5.5415   -4.0740    4.2665 C.ar      1 <0>         0.1069
     34 N1          4.3856   -4.1231    3.6317 N.ar      1 <0>        -0.4562
     35 C27         1.0279   -5.9565    4.1363 C.3       1 <0>        -0.1521
     36 O4          1.5866   -6.1724    6.4589 O.3       1 <0>        -0.5411
     37 F1          0.1995   -2.9238    7.2315 F         1 <0>        -0.1911
     38 C28        -0.3828   -6.5443    7.7353 C.3       1 <0>        -0.1338
     39 H4          2.3749    2.2515    1.5280 H         1 <0>         0.0543
     40 H5          0.9148    2.5978    0.5707 H         1 <0>         0.0574
     41 H6          0.7758    2.2441    2.3096 H         1 <0>         0.0559
     42 H7          0.1187    0.2797    0.9466 H         1 <0>         0.0707
     43 H8          1.7178    0.2871    0.1650 H         1 <0>         0.0620
     44 H9          2.7971   -0.0627    2.3699 H         1 <0>         0.0833
     45 H10         1.1979   -0.0701    3.1514 H         1 <0>         0.0796
     46 H11        -1.7135   -3.2078    3.1287 H         1 <0>         0.0903
     47 H12        -1.2550   -4.9413    3.0772 H         1 <0>         0.0885
     48 H13        -0.0129   -2.7105    4.7688 H         1 <0>         0.0910
     49 H14        -0.8260   -5.5696    5.4855 H         1 <0>         0.1162
     50 H15        -2.0621   -2.8877    6.2889 H         1 <0>         0.0749
     51 H16        -2.7848   -4.0370    5.1390 H         1 <0>         0.0813
     52 H17        -3.7241   -4.2539    7.4653 H         1 <0>         0.0844
     53 H18        -2.9408   -5.7503    6.8934 H         1 <0>         0.0882
     54 H19        -3.3051   -3.9965    9.6557 H         1 <0>         0.1386
     55 H20         0.7623   -4.3994   11.3162 H         1 <0>         0.1403
     56 H21         1.5432   -5.1150    9.1944 H         1 <0>         0.1267
     57 H22         2.1969   -3.0159    5.4902 H         1 <0>         0.0832
     58 H23         3.1448   -4.4898    5.1488 H         1 <0>         0.0940
     59 H24         4.9376   -6.6679    1.5487 H         1 <0>         0.1373
     60 H25         7.1325   -6.6097    2.7065 H         1 <0>         0.1395
     61 H26         7.5014   -4.9051    4.4789 H         1 <0>         0.1367
     62 H27         5.6961   -3.3316    5.0355 H         1 <0>         0.1574
     63 H28         0.4960   -6.2085    3.2188 H         1 <0>         0.0499
     64 H29         2.0055   -6.4386    4.1336 H         1 <0>         0.0577
     65 H30         0.4542   -6.3032    4.9958 H         1 <0>         0.1044
     66 H31         2.4584   -6.5459    6.2705 H         1 <0>         0.3749
     67 H32        -0.6812   -6.6511    6.6924 H         1 <0>         0.0769
     68 H33         0.6201   -6.9495    7.8696 H         1 <0>         0.0976
     69 H34        -1.0823   -7.0876    8.3707 H         1 <0>         0.0540
@<TRIPOS>BOND
     1    1    2 1
     2    1   39 1
     3    1   40 1
     4    1   41 1
     5    2    3 1
     6    2   42 1
     7    2   43 1
     8    3    4 1
     9    3   44 1
    10    3   45 1
    11    4    5 1
    12    4   27 1
    13    4    6 1
    14    6    7 1
    15    7    8 1
    16    7   26 1
    17    7    9 1
    18    9   10 1
    19    9   46 1
    20    9   47 1
    21   10   25 1
    22   10   11 1
    23   10   48 1
    24   11   21 1
    25   11   12 1
    26   11   49 1
    27   12   13 1
    28   12   50 1
    29   12   51 1
    30   13   14 1
    31   13   52 1
    32   13   53 1
    33   14   20 1
    34   14   15 2
    35   15   16 1
    36   15   54 1
    37   16   17 2
    38   16   18 1
    39   18   19 2
    40   18   55 1
    41   19   20 1
    42   19   56 1
    43   20   21 1
    44   20   38 1
    45   21   22 1
    46   21   37 1
    47   22   23 1
    48   22   24 1
    49   22   36 1
    50   24   25 1
    51   24   57 1
    52   24   58 1
    53   25   26 1
    54   25   35 1
    55   26   27 1
    56   26   28 1
    57   28   29 1
    58   29   34 ar
    59   29   30 ar
    60   30   31 ar
    61   30   59 1
    62   31   32 ar
    63   31   60 1
    64   32   33 ar
    65   32   61 1
    66   33   34 ar
    67   33   62 1
    68   35   63 1
    69   35   64 1
    70   35   65 1
    71   36   66 1
    72   38   67 1
    73   38   68 1
    74   38   69 1
@<TRIPOS>MOLECULE
CHEMBL144841__3
   69    74     0     0     0
SMALL
USER_CHARGES

@<TRIPOS>ATOM
      1 C1         -0.4776    1.6710    2.0185 C.3       1 <0>        -0.1517
      2 C2         -0.4316    0.2126    1.5582 C.3       1 <0>        -0.1203
      3 C3          0.3952   -0.6092    2.5492 C.3       1 <0>        -0.1105
      4 C4          0.4412   -2.0674    2.0889 C.3       1 <0>         0.2182
      5 H1          0.8029   -2.1297    1.0623 H         1 <0>         0.0763
      6 O1         -0.8615   -2.6756    2.2009 O.3       1 <0>        -0.3649
      7 C5         -0.6238   -4.0919    2.3316 C.3       1 <0>         0.0744
      8 H2         -0.8664   -4.6445    1.4267 H         1 <0>         0.1038
      9 C6         -1.4258   -4.5937    3.5678 C.3       1 <0>        -0.1102
     10 C7         -0.3973   -4.4754    4.6963 C.3       1 <0>        -0.0812
     11 C8         -0.6870   -5.1010    6.0168 C.3       1 <0>        -0.0789
     12 C9         -1.1085   -6.5661    5.9958 C.3       1 <0>        -0.1203
     13 C10        -1.8425   -6.8128    7.3228 C.3       1 <0>        -0.0935
     14 C11        -1.0326   -6.2654    8.4689 C.2       1 <0>        -0.0256
     15 C12        -1.4706   -6.5727    9.7099 C.2       1 <0>        -0.2374
     16 C13        -0.7435   -5.9826   10.8581 C.2       1 <0>         0.4098
     17 O2         -0.6643   -6.5502   11.9372 O.2       1 <0>        -0.4524
     18 C14        -0.1171   -4.6600   10.6167 C.2       1 <0>        -0.2218
     19 C15         0.3139   -4.3867    9.3761 C.2       1 <0>        -0.0794
     20 C16         0.2149   -5.4629    8.3234 C.3       1 <0>        -0.0261
     21 C17         0.5274   -4.9457    6.9477 C.3       1 <0>         0.1707
     22 C18         1.8078   -5.4393    6.3090 C.3       1 <0>         0.1009
     23 H3          2.6590   -5.1395    6.9437 H         1 <0>         0.0606
     24 C19         2.0588   -4.7841    4.9367 C.3       1 <0>        -0.1227
     25 C20         0.8806   -5.0146    4.0238 C.3       1 <0>        -0.0235
     26 C21         0.8816   -4.2004    2.7192 C.3       1 <0>         0.1006
     27 O3          1.2880   -2.8457    2.9659 O.3       1 <0>        -0.3187
     28 S1          1.8695   -5.0034    1.4324 S.3       1 <0>        -0.0737
     29 C22         3.5293   -4.8264    1.9966 C.ar      1 <0>         0.1214
     30 C23         4.5589   -5.4825    1.3279 C.ar      1 <0>        -0.1482
     31 C24         5.8567   -5.3347    1.7817 C.ar      1 <0>        -0.0609
     32 C25         6.0833   -4.5328    2.8931 C.ar      1 <0>        -0.1737
     33 C26         5.0150   -3.9115    3.5079 C.ar      1 <0>         0.1061
     34 N1          3.7870   -4.0659    3.0501 N.ar      1 <0>        -0.4554
     35 C27         0.7614   -6.4836    3.6195 C.3       1 <0>        -0.1601
     36 O4          1.8533   -6.8526    6.1479 O.3       1 <0>        -0.5472
     37 F1          0.6913   -3.5440    7.0992 F         1 <0>        -0.2068
     38 C28         1.3331   -6.4239    8.7298 C.3       1 <0>        -0.1497
     39 H4          0.5359    2.0696    2.0645 H         1 <0>         0.0543
     40 H5         -1.0666    2.2564    1.3126 H         1 <0>         0.0574
     41 H6         -0.9348    1.7259    3.0065 H         1 <0>         0.0559
     42 H7         -1.4450   -0.1861    1.5122 H         1 <0>         0.0708
     43 H8          0.0256    0.1577    0.5703 H         1 <0>         0.0620
     44 H9          1.4087   -0.2106    2.5952 H         1 <0>         0.0834
     45 H10        -0.0620   -0.5543    3.5371 H         1 <0>         0.0797
     46 H11        -2.2747   -3.9313    3.7571 H         1 <0>         0.0880
     47 H12        -1.7659   -5.6140    3.4315 H         1 <0>         0.0895
     48 H13        -0.2455   -3.3827    4.8702 H         1 <0>         0.0867
     49 H14        -1.5175   -4.5290    6.4882 H         1 <0>         0.0827
     50 H15        -1.7963   -6.7526    5.1692 H         1 <0>         0.0779
     51 H16        -0.2596   -7.2370    5.9357 H         1 <0>         0.1022
     52 H17        -2.8086   -6.3145    7.2962 H         1 <0>         0.0883
     53 H18        -1.9797   -7.8832    7.4607 H         1 <0>         0.0876
     54 H19        -2.3253   -7.2309    9.8552 H         1 <0>         0.1484
     55 H20        -0.0103   -3.9334   11.4227 H         1 <0>         0.1479
     56 H21         0.7280   -3.4141    9.1321 H         1 <0>         0.1509
     57 H22         2.2193   -3.7113    5.0780 H         1 <0>         0.0911
     58 H23         2.9625   -5.2171    4.4962 H         1 <0>         0.0807
     59 H24         4.3470   -6.0988    0.4668 H         1 <0>         0.1373
     60 H25         6.6758   -5.8318    1.2833 H         1 <0>         0.1394
     61 H26         7.0853   -4.3972    3.2726 H         1 <0>         0.1367
     62 H27         5.1870   -3.2872    4.3723 H         1 <0>         0.1573
     63 H28        -0.0491   -6.5977    2.8996 H         1 <0>         0.0560
     64 H29         1.6973   -6.8132    3.1682 H         1 <0>         0.0636
     65 H30         0.5512   -7.0875    4.5022 H         1 <0>         0.0944
     66 H31         2.6684   -7.1760    5.7404 H         1 <0>         0.3833
     67 H32         1.3259   -7.2902    8.0683 H         1 <0>         0.0959
     68 H33         2.2945   -5.9160    8.6529 H         1 <0>         0.0650
     69 H34         1.1758   -6.7504    9.7578 H         1 <0>         0.0574
@<TRIPOS>BOND
     1    1    2 1
     2    1   39 1
     3    1   40 1
     4    1   41 1
     5    2    3 1
     6    2   42 1
     7    2   43 1
     8    3    4 1
     9    3   44 1
    10    3   45 1
    11    4    5 1
    12    4   27 1
    13    4    6 1
    14    6    7 1
    15    7    8 1
    16    7   26 1
    17    7    9 1
    18    9   10 1
    19    9   46 1
    20    9   47 1
    21   10   25 1
    22   10   11 1
    23   10   48 1
    24   11   21 1
    25   11   12 1
    26   11   49 1
    27   12   13 1
    28   12   50 1
    29   12   51 1
    30   13   14 1
    31   13   52 1
    32   13   53 1
    33   14   20 1
    34   14   15 2
    35   15   16 1
    36   15   54 1
    37   16   17 2
    38   16   18 1
    39   18   19 2
    40   18   55 1
    41   19   20 1
    42   19   56 1
    43   20   21 1
    44   20   38 1
    45   21   22 1
    46   21   37 1
    47   22   23 1
    48   22   24 1
    49   22   36 1
    50   24   25 1
    51   24   57 1
    52   24   58 1
    53   25   26 1
    54   25   35 1
    55   26   27 1
    56   26   28 1
    57   28   29 1
    58   29   34 ar
    59   29   30 ar
    60   30   31 ar
    61   30   59 1
    62   31   32 ar
    63   31   60 1
    64   32   33 ar
    65   32   61 1
    66   33   34 ar
    67   33   62 1
    68   35   63 1
    69   35   64 1
    70   35   65 1
    71   36   66 1
    72   38   67 1
    73   38   68 1
    74   38   69 1
@<TRIPOS>MOLECULE
CHEMBL184109
   54    58     0     0     0
SMALL
USER_CHARGES

@<TRIPOS>ATOM
      1 C1          0.1001    1.5944   -0.0350 C.3       1 <0>        -0.1502
      2 C2          0.0494    0.0656    0.0013 C.3       1 <0>        -0.0116
      3 C3         -1.4265   -0.3639   -0.0229 C.3       1 <0>        -0.0345
      4 C4         -1.9264   -1.1700    1.1540 C.2       1 <0>        -0.2170
      5 C5         -3.1803   -1.6862    1.4702 C.2       1 <0>         0.0700
      6 N1         -3.0971   -2.3121    2.6177 N.2       1 <0>        -0.2796
      7 N2         -1.7807   -2.2222    3.0858 N.pl3     1 <0>        -0.3211
      8 C6         -1.0555   -1.5134    2.1642 C.2       1 <0>         0.1193
      9 C7          0.3617   -1.1346    2.1286 C.2       1 <0>        -0.1249
     10 C8          0.8925   -0.4055    1.1666 C.2       1 <0>        -0.0482
     11 C9          2.3646   -0.0676    1.1725 C.3       1 <0>        -0.0839
     12 C10         2.9710   -0.5388   -0.1549 C.3       1 <0>        -0.1125
     13 C11         2.1694    0.0477   -1.3178 C.3       1 <0>        -0.1368
     14 C12         0.7259   -0.4565   -1.2667 C.3       1 <0>        -0.1039
     15 H1          0.7217   -1.5465   -1.2584 H         1 <0>         0.0840
     16 C13        -0.0344    0.0475   -2.4951 C.3       1 <0>         0.1499
     17 C14         0.5307   -0.5965   -3.7348 C.ar      1 <0>        -0.1249
     18 C15         1.6982   -0.1114   -4.2942 C.ar      1 <0>        -0.0841
     19 C16         2.2176   -0.7015   -5.4308 C.ar      1 <0>        -0.1505
     20 C17         1.5683   -1.7789   -6.0093 C.ar      1 <0>         0.0996
     21 C18         0.3991   -2.2639   -5.4481 C.ar      1 <0>        -0.1499
     22 C19        -0.1156   -1.6756   -4.3085 C.ar      1 <0>        -0.0800
     23 F1          2.0749   -2.3563   -7.1207 F         1 <0>        -0.1384
     24 O1          0.1026    1.4667   -2.5909 O.3       1 <0>        -0.5438
     25 C20        -1.2918   -2.7615    4.2832 C.ar      1 <0>         0.1480
     26 C21         0.0047   -3.2548    4.3451 C.ar      1 <0>        -0.1049
     27 C22         0.4849   -3.7855    5.5262 C.ar      1 <0>        -0.1304
     28 C23        -0.3257   -3.8257    6.6484 C.ar      1 <0>         0.0975
     29 C24        -1.6192   -3.3346    6.5885 C.ar      1 <0>        -0.1318
     30 C25        -2.1012   -2.7980    5.4109 C.ar      1 <0>        -0.0828
     31 F2          0.1458   -4.3452    7.8029 F         1 <0>        -0.1332
     32 H2          1.1099    1.9185   -0.2866 H         1 <0>         0.0608
     33 H3         -0.5978    1.9633   -0.7865 H         1 <0>         0.0889
     34 H4         -0.1755    1.9904    0.9424 H         1 <0>         0.0477
     35 H5         -2.0369    0.5361   -0.0970 H         1 <0>         0.0783
     36 H6         -1.5903   -0.9516   -0.9262 H         1 <0>         0.0722
     37 H7         -4.0724   -1.5868    0.8697 H         1 <0>         0.1905
     38 H8          0.9975   -1.4515    2.9421 H         1 <0>         0.1178
     39 H9          2.4940    1.0100    1.2737 H         1 <0>         0.0840
     40 H10         2.8553   -0.5767    2.0021 H         1 <0>         0.0750
     41 H11         4.0059   -0.2032   -0.2211 H         1 <0>         0.0714
     42 H12         2.9381   -1.6272   -0.2033 H         1 <0>         0.0655
     43 H13         2.1751    1.1355   -1.2487 H         1 <0>         0.0756
     44 H14         2.6251   -0.2554   -2.2604 H         1 <0>         0.0752
     45 H15        -1.0893   -0.2101   -2.4004 H         1 <0>         0.1159
     46 H16         2.2043    0.7292   -3.8430 H         1 <0>         0.1320
     47 H17         3.1294   -0.3221   -5.8679 H         1 <0>         0.1370
     48 H18        -0.1083   -3.1041   -5.8987 H         1 <0>         0.1373
     49 H19        -1.0251   -2.0565   -3.8680 H         1 <0>         0.1342
     50 H20         1.0171    1.7686   -2.6776 H         1 <0>         0.3708
     51 H21         0.6370   -3.2239    3.4701 H         1 <0>         0.1420
     52 H22         1.4931   -4.1696    5.5747 H         1 <0>         0.1470
     53 H23        -2.2499   -3.3672    7.4646 H         1 <0>         0.1470
     54 H24        -3.1084   -2.4107    5.3659 H         1 <0>         0.1446
@<TRIPOS>BOND
     1    1    2 1
     2    1   32 1
     3    1   33 1
     4    1   34 1
     5    2   10 1
     6    2   14 1
     7    2    3 1
     8    3    4 1
     9    3   35 1
    10    3   36 1
    11    4    8 2
    12    4    5 1
    13    5    6 2
    14    5   37 1
    15    6    7 1
    16    7    8 1
    17    7   25 1
    18    8    9 1
    19    9   10 2
    20    9   38 1
    21   10   11 1
    22   11   12 1
    23   11   39 1
    24   11   40 1
    25   12   13 1
    26   12   41 1
    27   12   42 1
    28   13   14 1
    29   13   43 1
    30   13   44 1
    31   14   15 1
    32   14   16 1
    33   16   17 1
    34   16   24 1
    35   16   45 1
    36   17   22 ar
    37   17   18 ar
    38   18   19 ar
    39   18   46 1
    40   19   20 ar
    41   19   47 1
    42   20   21 ar
    43   20   23 1
    44   21   22 ar
    45   21   48 1
    46   22   49 1
    47   24   50 1
    48   25   30 ar
    49   25   26 ar
    50   26   27 ar
    51   26   51 1
    52   27   28 ar
    53   27   52 1
    54   28   29 ar
    55   28   31 1
    56   29   30 ar
    57   29   53 1
    58   30   54 1
@<TRIPOS>MOLECULE
CHEMBL184109__1
   54    58     0     0     0
SMALL
USER_CHARGES

@<TRIPOS>ATOM
      1 C1         -0.0123    1.8623   -0.2211 C.3       1 <0>        -0.1527
      2 C2         -0.0904    0.3471   -0.0236 C.3       1 <0>        -0.0094
      3 C3         -1.5539   -0.0843   -0.2122 C.3       1 <0>        -0.0658
      4 C4         -2.2289   -0.7547    0.9625 C.2       1 <0>        -0.2071
      5 C5         -3.5226   -1.2338    1.1502 C.2       1 <0>         0.0674
      6 N1         -3.6137   -1.7277    2.3600 N.2       1 <0>        -0.2806
      7 N2         -2.3766   -1.5845    2.9996 N.pl3     1 <0>        -0.3224
      8 C6         -1.5165   -0.9821    2.1191 C.2       1 <0>         0.1087
      9 C7         -0.1034   -0.6079    2.2460 C.2       1 <0>        -0.1197
     10 C8          0.5703    0.0100    1.2956 C.2       1 <0>        -0.0539
     11 C9          2.0313    0.3482    1.4757 C.3       1 <0>        -0.0842
     12 C10         2.8142   -0.2674    0.3096 C.3       1 <0>        -0.1143
     13 C11         2.1959    0.1847   -1.0142 C.3       1 <0>        -0.1243
     14 C12         0.7526   -0.3124   -1.1157 C.3       1 <0>        -0.1025
     15 H1          0.7311   -1.3947   -0.9876 H         1 <0>         0.0788
     16 C13         0.1834    0.0504   -2.4887 C.3       1 <0>         0.1492
     17 C14         1.1225   -0.4303   -3.5648 C.ar      1 <0>        -0.1230
     18 C15         1.0368   -1.7307   -4.0259 C.ar      1 <0>        -0.0847
     19 C16         1.8971   -2.1726   -5.0131 C.ar      1 <0>        -0.1484
     20 C17         2.8452   -1.3122   -5.5403 C.ar      1 <0>         0.0991
     21 C18         2.9301   -0.0099   -5.0777 C.ar      1 <0>        -0.1503
     22 C19         2.0652    0.4312   -4.0942 C.ar      1 <0>        -0.0794
     23 F1          3.6871   -1.7431   -6.5050 F         1 <0>        -0.1383
     24 O1         -1.0915   -0.5731   -2.6557 O.3       1 <0>        -0.5377
     25 C20        -2.0720   -1.9862    4.3070 C.ar      1 <0>         0.1497
     26 C21        -0.8051   -2.4680    4.6089 C.ar      1 <0>        -0.1058
     27 C22        -0.5067   -2.8629    5.8981 C.ar      1 <0>        -0.1304
     28 C23        -1.4699   -2.7787    6.8896 C.ar      1 <0>         0.0962
     29 C24        -2.7342   -2.2989    6.5904 C.ar      1 <0>        -0.1316
     30 C25        -3.0348   -1.8976    5.3037 C.ar      1 <0>        -0.0839
     31 F2         -1.1761   -3.1656    8.1502 F         1 <0>        -0.1336
     32 H2          1.0322    2.1737   -0.2339 H         1 <0>         0.0647
     33 H3         -0.4829    2.1302   -1.1671 H         1 <0>         0.0652
     34 H4         -0.5306    2.3625    0.5970 H         1 <0>         0.0586
     35 H5         -2.1340    0.8010   -0.4723 H         1 <0>         0.0714
     36 H6         -1.5955   -0.7693   -1.0590 H         1 <0>         0.1197
     37 H7         -4.3181   -1.2031    0.4205 H         1 <0>         0.1899
     38 H8          0.4048   -0.8313    3.1724 H         1 <0>         0.1164
     39 H9          2.1608    1.4305    1.4746 H         1 <0>         0.0828
     40 H10         2.3907   -0.0646    2.4183 H         1 <0>         0.0743
     41 H11         3.8528    0.0600    0.3562 H         1 <0>         0.0707
     42 H12         2.7724   -1.3545    0.3777 H         1 <0>         0.0647
     43 H13         2.2078    1.2734   -1.0657 H         1 <0>         0.0732
     44 H14         2.7772   -0.2211   -1.8421 H         1 <0>         0.0725
     45 H15         0.0711    1.1322   -2.5611 H         1 <0>         0.1170
     46 H16         0.2974   -2.4018   -3.6143 H         1 <0>         0.1301
     47 H17         1.8302   -3.1887   -5.3729 H         1 <0>         0.1368
     48 H18         3.6694    0.6620   -5.4880 H         1 <0>         0.1374
     49 H19         2.1283    1.4483   -3.7364 H         1 <0>         0.1344
     50 H20        -1.0621   -1.5395   -2.6384 H         1 <0>         0.3756
     51 H21        -0.0537   -2.5342    3.8359 H         1 <0>         0.1417
     52 H22         0.4784   -3.2380    6.1333 H         1 <0>         0.1466
     53 H23        -3.4841   -2.2344    7.3649 H         1 <0>         0.1466
     54 H24        -4.0193   -1.5190    5.0718 H         1 <0>         0.1443
@<TRIPOS>BOND
     1    1    2 1
     2    1   32 1
     3    1   33 1
     4    1   34 1
     5    2   10 1
     6    2   14 1
     7    2    3 1
     8    3    4 1
     9    3   35 1
    10    3   36 1
    11    4    8 2
    12    4    5 1
    13    5    6 2
    14    5   37 1
    15    6    7 1
    16    7    8 1
    17    7   25 1
    18    8    9 1
    19    9   10 2
    20    9   38 1
    21   10   11 1
    22   11   12 1
    23   11   39 1
    24   11   40 1
    25   12   13 1
    26   12   41 1
    27   12   42 1
    28   13   14 1
    29   13   43 1
    30   13   44 1
    31   14   15 1
    32   14   16 1
    33   16   17 1
    34   16   24 1
    35   16   45 1
    36   17   22 ar
    37   17   18 ar
    38   18   19 ar
    39   18   46 1
    40   19   20 ar
    41   19   47 1
    42   20   21 ar
    43   20   23 1
    44   21   22 ar
    45   21   48 1
    46   22   49 1
    47   24   50 1
    48   25   30 ar
    49   25   26 ar
    50   26   27 ar
    51   26   51 1
    52   27   28 ar
    53   27   52 1
    54   28   29 ar
    55   28   31 1
    56   29   30 ar
    57   29   53 1
    58   30   54 1
@<TRIPOS>MOLECULE
CHEMBL365818
   53    57     0     0     0
SMALL
USER_CHARGES

@<TRIPOS>ATOM
      1 C1          0.1004    1.5945   -0.0351 C.3       1 <0>        -0.1505
      2 C2          0.0495    0.0658    0.0013 C.3       1 <0>        -0.0108
      3 C3         -1.4264   -0.3636   -0.0228 C.3       1 <0>        -0.0346
      4 C4         -1.9264   -1.1695    1.1542 C.2       1 <0>        -0.2169
      5 C5         -3.1803   -1.6855    1.4704 C.2       1 <0>         0.0700
      6 N1         -3.0972   -2.3113    2.6181 N.2       1 <0>        -0.2791
      7 N2         -1.7807   -2.2216    3.0861 N.pl3     1 <0>        -0.3208
      8 C6         -1.0554   -1.5129    2.1644 C.2       1 <0>         0.1191
      9 C7          0.3618   -1.1343    2.1287 C.2       1 <0>        -0.1238
     10 C8          0.8926   -0.4053    1.1666 C.2       1 <0>        -0.0491
     11 C9          2.3648   -0.0676    1.1724 C.3       1 <0>        -0.0838
     12 C10         2.9710   -0.5390   -0.1550 C.3       1 <0>        -0.1124
     13 C11         2.1694    0.0476   -1.3179 C.3       1 <0>        -0.1366
     14 C12         0.7259   -0.4565   -1.2667 C.3       1 <0>        -0.1028
     15 H1          0.7216   -1.5465   -1.2584 H         1 <0>         0.0836
     16 C13        -0.0344    0.0475   -2.4951 C.3       1 <0>         0.1472
     17 H2         -1.0893   -0.2101   -2.4004 H         1 <0>         0.1184
     18 C14         0.5307   -0.5965   -3.7348 C.ar      1 <0>        -0.0689
     19 C15         1.7004   -0.1238   -4.3099 C.ar      1 <0>        -0.1681
     20 C16         2.1887   -0.7397   -5.4467 C.ar      1 <0>         0.1027
     21 N3          1.5555   -1.7643   -5.9836 N.ar      1 <0>        -0.4845
     22 C17         0.4409   -2.2403   -5.4639 C.ar      1 <0>         0.1034
     23 C18        -0.1036   -1.6795   -4.3241 C.ar      1 <0>        -0.1647
     24 O1          0.1026    1.4667   -2.5909 O.3       1 <0>        -0.5419
     25 C19        -1.2918   -2.7608    4.2834 C.ar      1 <0>         0.1476
     26 C20         0.0047   -3.2543    4.3454 C.ar      1 <0>        -0.1049
     27 C21         0.4848   -3.7849    5.5265 C.ar      1 <0>        -0.1304
     28 C22        -0.3257   -3.8250    6.6487 C.ar      1 <0>         0.0978
     29 C23        -1.6192   -3.3337    6.5888 C.ar      1 <0>        -0.1317
     30 C24        -2.1012   -2.7971    5.4112 C.ar      1 <0>        -0.0826
     31 F1          0.1458   -4.3445    7.8032 F         1 <0>        -0.1331
     32 H3          1.1103    1.9185   -0.2869 H         1 <0>         0.0610
     33 H4         -0.5975    1.9635   -0.7866 H         1 <0>         0.0886
     34 H5         -0.1751    1.9906    0.9423 H         1 <0>         0.0487
     35 H6         -2.0368    0.5365   -0.0970 H         1 <0>         0.0786
     36 H7         -1.5903   -0.9513   -0.9261 H         1 <0>         0.0717
     37 H8         -4.0725   -1.5860    0.8700 H         1 <0>         0.1907
     38 H9          0.9976   -1.4512    2.9421 H         1 <0>         0.1183
     39 H10         2.4943    1.0100    1.2735 H         1 <0>         0.0843
     40 H11         2.8554   -0.5767    2.0020 H         1 <0>         0.0755
     41 H12         4.0060   -0.2035   -0.2212 H         1 <0>         0.0722
     42 H13         2.9380   -1.6274   -0.2033 H         1 <0>         0.0652
     43 H14         2.1753    1.1354   -1.2489 H         1 <0>         0.0763
     44 H15         2.6251   -0.2557   -2.2605 H         1 <0>         0.0746
     45 H16         2.2232    0.7154   -3.8752 H         1 <0>         0.1339
     46 H17         3.0992   -0.3775   -5.9008 H         1 <0>         0.1567
     47 H18        -0.0498   -3.0808   -5.9319 H         1 <0>         0.1573
     48 H19        -1.0139   -2.0770   -3.9003 H         1 <0>         0.1361
     49 H20         1.0171    1.7686   -2.6776 H         1 <0>         0.3720
     50 H21         0.6369   -3.2236    3.4704 H         1 <0>         0.1419
     51 H22         1.4930   -4.1692    5.5750 H         1 <0>         0.1471
     52 H23        -2.2499   -3.3662    7.4649 H         1 <0>         0.1471
     53 H24        -3.1083   -2.4097    5.3662 H         1 <0>         0.1446
@<TRIPOS>BOND
     1    1    2 1
     2    1   32 1
     3    1   33 1
     4    1   34 1
     5    2   10 1
     6    2   14 1
     7    2    3 1
     8    3    4 1
     9    3   35 1
    10    3   36 1
    11    4    8 2
    12    4    5 1
    13    5    6 2
    14    5   37 1
    15    6    7 1
    16    7    8 1
    17    7   25 1
    18    8    9 1
    19    9   10 2
    20    9   38 1
    21   10   11 1
    22   11   12 1
    23   11   39 1
    24   11   40 1
    25   12   13 1
    26   12   41 1
    27   12   42 1
    28   13   14 1
    29   13   43 1
    30   13   44 1
    31   14   15 1
    32   14   16 1
    33   16   17 1
    34   16   18 1
    35   16   24 1
    36   18   23 ar
    37   18   19 ar
    38   19   20 ar
    39   19   45 1
    40   20   21 ar
    41   20   46 1
    42   21   22 ar
    43   22   23 ar
    44   22   47 1
    45   23   48 1
    46   24   49 1
    47   25   30 ar
    48   25   26 ar
    49   26   27 ar
    50   26   50 1
    51   27   28 ar
    52   27   51 1
    53   28   29 ar
    54   28   31 1
    55   29   30 ar
    56   29   52 1
    57   30   53 1
@<TRIPOS>MOLECULE
CHEMBL392501
   55    56     0     0     0
SMALL
USER_CHARGES

@<TRIPOS>ATOM
      1 C1          0.8084   -0.9354   -2.6241 C.3       1 <0>        -0.1219
      2 C2          0.6791   -2.2820   -1.9601 C.ar      1 <0>        -0.0453
      3 C3          0.6388   -3.4297   -2.7324 C.ar      1 <0>        -0.1201
      4 C4          0.5206   -4.6654   -2.1312 C.ar      1 <0>        -0.0298
      5 C5          0.4419   -4.7568   -0.7399 C.ar      1 <0>        -0.0261
      6 C6          0.4836   -3.5949    0.0331 C.ar      1 <0>        -0.0327
      7 C7          0.6069   -2.3657   -0.5811 C.ar      1 <0>        -0.1120
      8 C8          0.3994   -3.6837    1.5351 C.3       1 <0>        -0.1223
      9 C9          1.7940   -3.9397    2.1099 C.3       1 <0>         0.1025
     10 C10         1.7084   -4.0298    3.6348 C.3       1 <0>        -0.1565
     11 C11         3.0752   -4.4214    4.2001 C.3       1 <0>        -0.0158
     12 C12         2.8850   -5.1784    5.5160 C.3       1 <0>        -0.1364
     13 C13         3.8042   -5.3176    3.1969 C.3       1 <0>        -0.1523
     14 C14         3.8907   -3.1787    4.4487 C.ar      1 <0>        -0.0395
     15 C15         3.2609   -1.9597    4.6109 C.ar      1 <0>        -0.1510
     16 C16         4.0097   -0.8180    4.8398 C.ar      1 <0>         0.0764
     17 C17         5.3906   -0.8960    4.9060 C.ar      1 <0>        -0.1294
     18 C18         6.0229   -2.1134    4.7442 C.ar      1 <0>        -0.1698
     19 C19         5.2734   -3.2592    4.5204 C.ar      1 <0>         0.1164
     20 O1          5.8940   -4.4589    4.3666 O.3       1 <0>        -0.2956
     21 C20         7.3204   -4.4671    4.4526 C.3       1 <0>         0.0164
     22 F1          3.3926    0.3733    4.9982 F         1 <0>        -0.1402
     23 C21         2.7258   -2.7911    1.7183 C.3       1 <0>         0.4623
     24 F2          2.1732   -1.5775    2.1414 F         1 <0>        -0.1736
     25 F3          3.9721   -2.9734    2.3271 F         1 <0>        -0.1496
     26 F4          2.8840   -2.7721    0.3284 F         1 <0>        -0.1668
     27 O2          2.3061   -5.1676    1.5882 O.3       1 <0>        -0.5225
     28 C22         0.3186   -6.0364   -0.1090 C.1       1 <0>         0.2649
     29 N1          0.2207   -7.0515    0.3915 N.1       1 <0>        -0.4221
     30 C23         0.4759   -5.9140   -2.9739 C.3       1 <0>        -0.1244
     31 H1          1.8634   -0.6849   -2.7351 H         1 <0>         0.0777
     32 H2          0.3374   -0.9680   -3.6066 H         1 <0>         0.0721
     33 H3          0.3180   -0.1794   -2.0109 H         1 <0>         0.0713
     34 H4          0.6998   -3.3575   -3.8082 H         1 <0>         0.1340
     35 H5          0.6434   -1.4664    0.0158 H         1 <0>         0.1308
     36 H6          0.0087   -2.7471    1.9330 H         1 <0>         0.1065
     37 H7         -0.2645   -4.5020    1.8140 H         1 <0>         0.0988
     38 H8          1.4113   -3.0625    4.0399 H         1 <0>         0.0970
     39 H9          0.9708   -4.7824    3.9135 H         1 <0>         0.0963
     40 H10         2.2223   -6.0284    5.3537 H         1 <0>         0.0608
     41 H11         3.8514   -5.5341    5.8735 H         1 <0>         0.0653
     42 H12         2.4459   -4.5119    6.2584 H         1 <0>         0.0556
     43 H13         4.0410   -4.7430    2.3015 H         1 <0>         0.0877
     44 H14         4.7260   -5.6891    3.6446 H         1 <0>         0.0707
     45 H15         3.1650   -6.1592    2.9301 H         1 <0>         0.0573
     46 H16         2.1839   -1.8974    4.5588 H         1 <0>         0.1434
     47 H17         5.9737   -0.0044    5.0839 H         1 <0>         0.1357
     48 H18         7.0999   -2.1738    4.7955 H         1 <0>         0.1367
     49 H19         7.7348   -3.8216    3.6783 H         1 <0>         0.0551
     50 H20         7.6274   -4.1021    5.4327 H         1 <0>         0.0544
     51 H21         7.6869   -5.4840    4.3124 H         1 <0>         0.1002
     52 H22         1.7645   -5.9406    1.7984 H         1 <0>         0.3844
     53 H23         1.4889   -6.2873   -3.1242 H         1 <0>         0.0805
     54 H24        -0.1196   -6.6733   -2.4670 H         1 <0>         0.0661
     55 H25         0.0261   -5.6845   -3.9399 H         1 <0>         0.0781
@<TRIPOS>BOND
     1    1    2 1
     2    1   31 1
     3    1   32 1
     4    1   33 1
     5    2    7 ar
     6    2    3 ar
     7    3    4 ar
     8    3   34 1
     9    4    5 ar
    10    4   30 1
    11    5    6 ar
    12    5   28 1
    13    6    7 ar
    14    6    8 1
    15    7   35 1
    16    8    9 1
    17    8   36 1
    18    8   37 1
    19    9   10 1
    20    9   23 1
    21    9   27 1
    22   10   11 1
    23   10   38 1
    24   10   39 1
    25   11   12 1
    26   11   13 1
    27   11   14 1
    28   12   40 1
    29   12   41 1
    30   12   42 1
    31   13   43 1
    32   13   44 1
    33   13   45 1
    34   14   19 ar
    35   14   15 ar
    36   15   16 ar
    37   15   46 1
    38   16   17 ar
    39   16   22 1
    40   17   18 ar
    41   17   47 1
    42   18   19 ar
    43   18   48 1
    44   19   20 1
    45   20   21 1
    46   21   49 1
    47   21   50 1
    48   21   51 1
    49   23   24 1
    50   23   25 1
    51   23   26 1
    52   27   52 1
    53   28   29 3
    54   30   53 1
    55   30   54 1
    56   30   55 1
@<TRIPOS>MOLECULE
CHEMBL392501__1
   55    56     0     0     0
SMALL
USER_CHARGES

@<TRIPOS>ATOM
      1 C1          0.9619    3.3476    4.1828 C.3       1 <0>        -0.1191
      2 C2          1.0384    2.2492    3.1538 C.ar      1 <0>        -0.0583
      3 C3          1.4057    2.5479    1.8535 C.ar      1 <0>        -0.1154
      4 C4          1.4777    1.5475    0.9067 C.ar      1 <0>        -0.0405
      5 C5          1.1793    0.2306    1.2631 C.ar      1 <0>        -0.0020
      6 C6          0.8099   -0.0638    2.5769 C.ar      1 <0>        -0.0489
      7 C7          0.7465    0.9460    3.5149 C.ar      1 <0>        -0.1027
      8 C8          0.4861   -1.4819    2.9707 C.3       1 <0>        -0.1182
      9 C9          1.7783   -2.2206    3.3246 C.3       1 <0>         0.1059
     10 C10         1.4647   -3.6919    3.6035 C.3       1 <0>        -0.1562
     11 C11         2.7289   -4.3982    4.0971 C.3       1 <0>        -0.0125
     12 C12         3.5608   -3.4270    4.9371 C.3       1 <0>        -0.1483
     13 C13         2.3380   -5.6057    4.9515 C.3       1 <0>        -0.1369
     14 C14         3.5400   -4.8612    2.9144 C.ar      1 <0>        -0.0531
     15 C15         3.0210   -4.7592    1.6379 C.ar      1 <0>        -0.1695
     16 C16         3.7660   -5.1839    0.5512 C.ar      1 <0>         0.0744
     17 C17         5.0318   -5.7120    0.7417 C.ar      1 <0>        -0.1276
     18 C18         5.5530   -5.8152    2.0167 C.ar      1 <0>        -0.1736
     19 C19         4.8099   -5.3846    3.1061 C.ar      1 <0>         0.1165
     20 O1          5.3239   -5.4804    4.3610 O.3       1 <0>        -0.3025
     21 C20         6.6376   -6.0294    4.4838 C.3       1 <0>         0.0214
     22 F1          3.2573   -5.0836   -0.6964 F         1 <0>        -0.1376
     23 C21         2.7594   -2.1212    2.1547 C.3       1 <0>         0.4521
     24 F2          3.0151   -0.7748    1.8737 F         1 <0>        -0.1615
     25 F3          3.9558   -2.7623    2.4937 F         1 <0>        -0.1528
     26 F4          2.2043   -2.7357    1.0271 F         1 <0>        -0.1582
     27 O2          2.3619   -1.6293    4.4872 O.3       1 <0>        -0.5193
     28 C22         1.2516   -0.8131    0.2852 C.1       1 <0>         0.2245
     29 N1          1.3089   -1.6410   -0.4905 N.1       1 <0>        -0.3829
     30 C23         1.8770    1.8749   -0.5090 C.3       1 <0>        -0.1233
     31 H1          1.9309    3.4575    4.6696 H         1 <0>         0.0761
     32 H2          0.6921    4.2842    3.6949 H         1 <0>         0.0701
     33 H3          0.2074    3.0955    4.9279 H         1 <0>         0.0699
     34 H4          1.6362    3.5668    1.5793 H         1 <0>         0.1325
     35 H5          0.4648    0.7191    4.5326 H         1 <0>         0.1313
     36 H6         -0.1777   -1.4763    3.8352 H         1 <0>         0.1095
     37 H7         -0.0050   -1.9869    2.1388 H         1 <0>         0.0943
     38 H8          0.6892   -3.7598    4.3665 H         1 <0>         0.0999
     39 H9          1.1160   -4.1691    2.6876 H         1 <0>         0.0925
     40 H10         2.9461   -3.0245    5.7423 H         1 <0>         0.0565
     41 H11         4.4157   -3.9536    5.3612 H         1 <0>         0.0603
     42 H12         3.9131   -2.6108    4.3064 H         1 <0>         0.0917
     43 H13         1.8221   -6.3383    4.3308 H         1 <0>         0.0531
     44 H14         3.2352   -6.0564    5.3758 H         1 <0>         0.0698
     45 H15         1.6781   -5.2827    5.7567 H         1 <0>         0.0598
     46 H16         2.0336   -4.3481    1.4880 H         1 <0>         0.1683
     47 H17         5.6116   -6.0437   -0.1069 H         1 <0>         0.1345
     48 H18         6.5402   -6.2275    2.1650 H         1 <0>         0.1359
     49 H19         6.6461   -7.0440    4.0856 H         1 <0>         0.0544
     50 H20         7.3423   -5.4137    3.9249 H         1 <0>         0.0548
     51 H21         6.9263   -6.0491    5.5347 H         1 <0>         0.1006
     52 H22         1.7942   -1.6567    5.2696 H         1 <0>         0.3888
     53 H23         2.9596    1.7961   -0.6087 H         1 <0>         0.0783
     54 H24         1.3972    1.1747   -1.1930 H         1 <0>         0.0658
     55 H25         1.5629    2.8906   -0.7495 H         1 <0>         0.0776
@<TRIPOS>BOND
     1    1    2 1
     2    1   31 1
     3    1   32 1
     4    1   33 1
     5    2    7 ar
     6    2    3 ar
     7    3    4 ar
     8    3   34 1
     9    4    5 ar
    10    4   30 1
    11    5    6 ar
    12    5   28 1
    13    6    7 ar
    14    6    8 1
    15    7   35 1
    16    8    9 1
    17    8   36 1
    18    8   37 1
    19    9   10 1
    20    9   23 1
    21    9   27 1
    22   10   11 1
    23   10   38 1
    24   10   39 1
    25   11   12 1
    26   11   13 1
    27   11   14 1
    28   12   40 1
    29   12   41 1
    30   12   42 1
    31   13   43 1
    32   13   44 1
    33   13   45 1
    34   14   19 ar
    35   14   15 ar
    36   15   16 ar
    37   15   46 1
    38   16   17 ar
    39   16   22 1
    40   17   18 ar
    41   17   47 1
    42   18   19 ar
    43   18   48 1
    44   19   20 1
    45   20   21 1
    46   21   49 1
    47   21   50 1
    48   21   51 1
    49   23   24 1
    50   23   25 1
    51   23   26 1
    52   27   52 1
    53   28   29 3
    54   30   53 1
    55   30   54 1
    56   30   55 1
@<TRIPOS>MOLECULE
CHEMBL132889
   43    45     0     0     0
SMALL
USER_CHARGES

@<TRIPOS>ATOM
      1 C1         -2.5102    3.6718    1.3246 C.3       1 <0>        -0.0981
      2 C2         -1.5145    2.8207    0.5794 C.2       1 <0>        -0.1319
      3 C3         -1.5634    2.7236   -0.7836 C.2       1 <0>        -0.0666
      4 C4         -0.6268    1.9285   -1.4284 C.2       1 <0>        -0.1372
      5 S1          0.3421    1.3078   -0.0636 S.3       1 <0>         0.1452
      6 C5         -0.5290    2.1268    1.2620 C.2       1 <0>        -0.0702
      7 C6         -0.2675    2.0756    2.7146 C.ar      1 <0>        -0.0717
      8 C7         -0.2420    3.2538    3.4650 C.ar      1 <0>        -0.0392
      9 C8          0.0071    3.1976    4.8165 C.ar      1 <0>        -0.1825
     10 C9          0.2320    1.9713    5.4440 C.ar      1 <0>         0.2329
     11 C10         0.1980    0.7990    4.7036 C.ar      1 <0>        -0.1400
     12 C11        -0.0507    0.8503    3.3446 C.ar      1 <0>        -0.0401
     13 C12         0.4055   -0.5525    5.3413 C.3       1 <0>        -0.0584
     14 C13         0.9849   -0.3722    6.7255 C.2       1 <0>         0.3687
     15 O1          1.8824   -1.0720    7.1295 O.2       1 <0>        -0.4265
     16 C14         0.3892    0.7272    7.5850 C.3       1 <0>         0.1339
     17 N1          0.4952    1.9740    6.8158 N.pl3     1 <0>        -0.7310
     18 C15        -1.0798    0.4200    7.8825 C.3       1 <0>        -0.1631
     19 C16         1.1738    0.8514    8.8926 C.3       1 <0>        -0.1498
     20 C17        -0.9362   -1.2810    5.4408 C.3       1 <0>        -0.1453
     21 C18         1.3714   -1.3765    4.4875 C.3       1 <0>        -0.1362
     22 C19        -0.4761    1.6718   -2.8291 C.1       1 <0>         0.2926
     23 N2         -0.3565    1.4681   -3.9403 N.1       1 <0>        -0.3964
     24 H1         -2.0841    4.6595    1.5007 H         1 <0>         0.0714
     25 H2         -3.4201    3.7691    0.7324 H         1 <0>         0.0681
     26 H3         -2.7466    3.2025    2.2795 H         1 <0>         0.0721
     27 H4         -2.3163    3.2548   -1.3470 H         1 <0>         0.1461
     28 H5         -0.4168    4.2056    2.9854 H         1 <0>         0.1312
     29 H6          0.0292    4.1086    5.3961 H         1 <0>         0.1305
     30 H7         -0.0730   -0.0623    2.7675 H         1 <0>         0.1295
     31 H8          0.7475    2.7986    7.2601 H         1 <0>         0.4090
     32 H9         -1.1740   -0.6120    8.2203 H         1 <0>         0.0708
     33 H10        -1.4410    1.0917    8.6613 H         1 <0>         0.0736
     34 H11        -1.6711    0.5616    6.9778 H         1 <0>         0.0768
     35 H12         2.2134    1.0927    8.6709 H         1 <0>         0.0684
     36 H13         0.7394    1.6429    9.5032 H         1 <0>         0.0721
     37 H14         1.1277   -0.0928    9.4351 H         1 <0>         0.0807
     38 H15        -1.2840   -1.5401    4.4408 H         1 <0>         0.0736
     39 H16        -0.8133   -2.1900    6.0296 H         1 <0>         0.0643
     40 H17        -1.6672   -0.6318    5.9228 H         1 <0>         0.0743
     41 H18         2.3273   -0.8575    4.4168 H         1 <0>         0.0612
     42 H19         1.5213   -2.3529    4.9483 H         1 <0>         0.0685
     43 H20         0.9537   -1.5062    3.4891 H         1 <0>         0.0685
@<TRIPOS>BOND
     1    1    2 1
     2    1   24 1
     3    1   25 1
     4    1   26 1
     5    2    6 2
     6    2    3 1
     7    3    4 2
     8    3   27 1
     9    4    5 1
    10    4   22 1
    11    5    6 1
    12    6    7 1
    13    7   12 ar
    14    7    8 ar
    15    8    9 ar
    16    8   28 1
    17    9   10 ar
    18    9   29 1
    19   10   17 1
    20   10   11 ar
    21   11   12 ar
    22   11   13 1
    23   12   30 1
    24   13   14 1
    25   13   20 1
    26   13   21 1
    27   14   15 2
    28   14   16 1
    29   16   17 1
    30   16   18 1
    31   16   19 1
    32   17   31 1
    33   18   32 1
    34   18   33 1
    35   18   34 1
    36   19   35 1
    37   19   36 1
    38   19   37 1
    39   20   38 1
    40   20   39 1
    41   20   40 1
    42   21   41 1
    43   21   42 1
    44   21   43 1
    45   22   23 3
@<TRIPOS>MOLECULE
CHEMBL1091054
   58    62     0     0     0
SMALL
USER_CHARGES

@<TRIPOS>ATOM
      1 C1         -0.0184    1.5028    0.0103 C.3       1 <0>        -0.0846
      2 C2          0.0021   -0.0041    0.0020 C.2       1 <0>         0.1311
      3 C3          0.0084   -0.8596   -1.1802 C.ar      1 <0>        -0.2353
      4 C4         -0.0014   -0.6170   -2.5574 C.ar      1 <0>         0.1420
      5 C5          0.0098   -1.7192   -3.4159 C.ar      1 <0>        -0.2371
      6 C6          0.0303   -3.0099   -2.8696 C.ar      1 <0>         0.2156
      7 N1          0.0391   -3.2025   -1.5720 N.ar      1 <0>        -0.4836
      8 C7          0.0291   -2.1890   -0.7111 C.ar      1 <0>         0.3666
      9 N2          0.0345   -2.1198    0.6533 N.pl3     1 <0>        -0.3757
     10 N3          0.0230   -0.7788    1.0484 N.2       1 <0>        -0.2343
     11 C8          0.0548   -3.2703    1.5601 C.3       1 <0>         0.1961
     12 C9          1.4824   -3.6450    1.8644 C.ar      1 <0>         0.0968
     13 C10         1.9025   -3.7246    3.1789 C.ar      1 <0>        -0.1517
     14 C11         3.2178   -4.0701    3.4479 C.ar      1 <0>        -0.0742
     15 C12         4.0652   -4.3238    2.3799 C.ar      1 <0>        -0.1649
     16 C13         3.5740   -4.2245    1.0922 C.ar      1 <0>         0.1013
     17 N4          2.3149   -3.8984    0.8738 N.ar      1 <0>        -0.4614
     18 C14        -0.0002   -1.5270   -4.8792 C.2       1 <0>         0.5693
     19 O1         -0.0184   -0.4040   -5.3448 O.2       1 <0>        -0.5144
     20 N5          0.0108   -2.5964   -5.6994 N.am      1 <0>        -0.7236
     21 C15         0.0008   -2.4056   -7.1519 C.3       1 <0>         0.1634
     22 C16         0.0164   -3.7488   -7.8351 C.ar      1 <0>        -0.1077
     23 C17         1.2227   -4.3486   -8.1484 C.ar      1 <0>        -0.0953
     24 C18         1.2427   -5.5785   -8.7745 C.ar      1 <0>        -0.1038
     25 C19         0.0449   -6.2160   -9.0905 C.ar      1 <0>        -0.0047
     26 C20        -1.1673   -5.6075   -8.7722 C.ar      1 <0>        -0.1054
     27 C21        -1.1757   -4.3799   -8.1415 C.ar      1 <0>        -0.0954
     28 C22         0.0602   -7.5386   -9.7643 C.2       1 <0>        -0.2259
     29 C23         0.5510   -7.8071  -11.0649 C.2       1 <0>         0.1225
     30 N6          0.3931   -9.0771  -11.2999 N.2       1 <0>        -0.3188
     31 O2         -0.2037   -9.6679  -10.1604 O.3       1 <0>        -0.0777
     32 C24        -0.3887   -8.7091   -9.2412 C.2       1 <0>         0.0929
     33 C25        -0.9914   -8.8962   -7.8726 C.3       1 <0>        -0.0903
     34 C26         1.1505   -6.7989  -12.0111 C.3       1 <0>        -0.0879
     35 Cl1        -0.0274    1.0030   -3.1808 Cl        1 <0>         0.0007
     36 H1          1.0042    1.8801    0.0026 H         1 <0>         0.0899
     37 H2         -0.5455    1.8639   -0.8728 H         1 <0>         0.0881
     38 H3         -0.5286    1.8543    0.9071 H         1 <0>         0.0867
     39 H4          0.0387   -3.8637   -3.5308 H         1 <0>         0.1729
     40 H5         -0.4583   -3.0119    2.4864 H         1 <0>         0.1152
     41 H6         -0.4496   -4.1136    1.0884 H         1 <0>         0.1173
     42 H7          1.2148   -3.5198    3.9861 H         1 <0>         0.1388
     43 H8          3.5741   -4.1397    4.4650 H         1 <0>         0.1388
     44 H9          5.0962   -4.5953    2.5525 H         1 <0>         0.1378
     45 H10         4.2276   -4.4205    0.2551 H         1 <0>         0.1569
     46 H11         0.0253   -3.4923   -5.3280 H         1 <0>         0.3994
     47 H12        -0.8984   -1.8615   -7.4407 H         1 <0>         0.0807
     48 H13         0.8814   -1.8364   -7.4496 H         1 <0>         0.0806
     49 H14         2.1507   -3.8536   -7.9030 H         1 <0>         0.1283
     50 H15         2.1852   -6.0457   -9.0193 H         1 <0>         0.1249
     51 H16        -2.0987   -6.0973   -9.0153 H         1 <0>         0.1248
     52 H17        -2.1148   -3.9093   -7.8904 H         1 <0>         0.1284
     53 H18        -2.0708   -8.7555   -7.9286 H         1 <0>         0.0968
     54 H19        -0.7743   -9.9025   -7.5145 H         1 <0>         0.0893
     55 H20        -0.5650   -8.1659   -7.1849 H         1 <0>         0.0962
     56 H21         2.2270   -6.7436  -11.8488 H         1 <0>         0.0910
     57 H22         0.9532   -7.1032  -13.0390 H         1 <0>         0.0840
     58 H23         0.7050   -5.8207  -11.8298 H         1 <0>         0.0883
@<TRIPOS>BOND
     1    1    2 1
     2    1   36 1
     3    1   37 1
     4    1   38 1
     5    2   10 2
     6    2    3 1
     7    3    8 ar
     8    3    4 ar
     9    4    5 ar
    10    4   35 1
    11    5    6 ar
    12    5   18 1
    13    6    7 ar
    14    6   39 1
    15    7    8 ar
    16    8    9 1
    17    9   10 1
    18    9   11 1
    19   11   12 1
    20   11   40 1
    21   11   41 1
    22   12   17 ar
    23   12   13 ar
    24   13   14 ar
    25   13   42 1
    26   14   15 ar
    27   14   43 1
    28   15   16 ar
    29   15   44 1
    30   16   17 ar
    31   16   45 1
    32   18   19 2
    33   18   20 am
    34   20   21 1
    35   20   46 1
    36   21   22 1
    37   21   47 1
    38   21   48 1
    39   22   27 ar
    40   22   23 ar
    41   23   24 ar
    42   23   49 1
    43   24   25 ar
    44   24   50 1
    45   25   26 ar
    46   25   28 1
    47   26   27 ar
    48   26   51 1
    49   27   52 1
    50   28   32 2
    51   28   29 1
    52   29   30 2
    53   29   34 1
    54   30   31 1
    55   31   32 1
    56   32   33 1
    57   33   53 1
    58   33   54 1
    59   33   55 1
    60   34   56 1
    61   34   57 1
    62   34   58 1
@<TRIPOS>MOLECULE
CHEMBL1091439
   56    60     0     0     0
SMALL
USER_CHARGES

@<TRIPOS>ATOM
      1 C1         -0.0184    1.5028    0.0103 C.3       1 <0>        -0.0882
      2 C2          0.0021   -0.0041    0.0020 C.2       1 <0>         0.1224
      3 C3          0.0081   -0.8300   -1.1479 C.2       1 <0>        -0.2271
      4 C4          0.0275   -2.1223   -0.7297 C.2       1 <0>         0.0941
      5 O1          0.0336   -2.1202    0.6114 O.3       1 <0>        -0.0774
      6 N1          0.0230   -0.7745    1.0504 N.2       1 <0>        -0.3186
      7 C5          0.0393   -3.3415   -1.6153 C.3       1 <0>        -0.0909
      8 C6         -0.0053   -0.3667   -2.5581 C.ar      1 <0>        -0.0029
      9 C7         -1.1073    0.3249   -3.0563 C.ar      1 <0>        -0.1059
     10 C8         -1.1143    0.7538   -4.3682 C.ar      1 <0>        -0.0948
     11 C9         -0.0299    0.4981   -5.1878 C.ar      1 <0>        -0.1087
     12 C10         1.0667   -0.1881   -4.6984 C.ar      1 <0>        -0.0948
     13 C11         1.0865   -0.6169   -3.3866 C.ar      1 <0>        -0.1056
     14 C12        -0.0435    0.9685   -6.6195 C.3       1 <0>         0.1634
     15 N2          0.5265    2.3158   -6.6963 N.am      1 <0>        -0.7233
     16 C13         0.6169    2.9425   -7.8861 C.2       1 <0>         0.5684
     17 O2          0.2255    2.3895   -8.8957 O.2       1 <0>        -0.5129
     18 C14         1.1912    4.2999   -7.9635 C.ar      1 <0>        -0.2355
     19 C15         1.6505    4.9433   -6.8060 C.ar      1 <0>         0.2165
     20 N3          2.1642    6.1495   -6.8530 N.ar      1 <0>        -0.4968
     21 C16         2.2760    6.8216   -7.9951 C.ar      1 <0>         0.3493
     22 C17         1.8376    6.2441   -9.2041 C.ar      1 <0>        -0.2362
     23 C18         1.2892    4.9577   -9.1922 C.ar      1 <0>         0.1430
     24 Cl1         0.7421    4.2040  -10.6572 Cl        1 <0>         0.0030
     25 C19         2.0988    7.2273  -10.2505 C.2       1 <0>         0.1034
     26 N4          2.6373    8.2695   -9.6854 N.2       1 <0>        -0.2263
     27 N5          2.7617    8.0594   -8.3089 N.pl3     1 <0>        -0.3760
     28 C20         3.3241    9.0165   -7.3530 C.3       1 <0>         0.1812
     29 C21         4.8081    8.7870   -7.2265 C.ar      1 <0>        -0.1244
     30 C22         5.2926    7.9025   -6.2811 C.ar      1 <0>        -0.0925
     31 C23         6.6539    7.6920   -6.1650 C.ar      1 <0>        -0.1246
     32 C24         7.5307    8.3657   -6.9947 C.ar      1 <0>        -0.1068
     33 C25         7.0461    9.2496   -7.9407 C.ar      1 <0>        -0.1244
     34 C26         5.6846    9.4568   -8.0596 C.ar      1 <0>        -0.0911
     35 H1          1.0042    1.8801    0.0026 H         1 <0>         0.0911
     36 H2         -0.5455    1.8639   -0.8728 H         1 <0>         0.0880
     37 H3         -0.5286    1.8543    0.9071 H         1 <0>         0.0842
     38 H4          1.0697   -3.6217   -1.8340 H         1 <0>         0.0971
     39 H5         -0.4609   -4.1653   -1.1061 H         1 <0>         0.0897
     40 H6         -0.4823   -3.1195   -2.5462 H         1 <0>         0.0965
     41 H7         -1.9547    0.5248   -2.4172 H         1 <0>         0.1254
     42 H8         -1.9683    1.2898   -4.7555 H         1 <0>         0.1284
     43 H9          1.9108   -0.3852   -5.3426 H         1 <0>         0.1283
     44 H10         1.9451   -1.1487   -3.0041 H         1 <0>         0.1248
     45 H11         0.5488    0.2879   -7.2311 H         1 <0>         0.0809
     46 H12        -1.0698    0.9867   -6.9862 H         1 <0>         0.0810
     47 H13         0.8388    2.7570   -5.8908 H         1 <0>         0.3993
     48 H14         1.5798    4.4356   -5.8555 H         1 <0>         0.1746
     49 H15         1.8848    7.1112  -11.3027 H         1 <0>         0.2077
     50 H16         3.1421   10.0317   -7.7056 H         1 <0>         0.1077
     51 H17         2.8510    8.8794   -6.3806 H         1 <0>         0.1088
     52 H18         4.6076    7.3761   -5.6329 H         1 <0>         0.1277
     53 H19         7.0325    7.0015   -5.4260 H         1 <0>         0.1248
     54 H20         8.5943    8.2018   -6.9035 H         1 <0>         0.1243
     55 H21         7.7311    9.7762   -8.5886 H         1 <0>         0.1253
     56 H22         5.3058   10.1446   -8.8012 H         1 <0>         0.1253
@<TRIPOS>BOND
     1    1    2 1
     2    1   35 1
     3    1   36 1
     4    1   37 1
     5    2    6 2
     6    2    3 1
     7    3    4 2
     8    3    8 1
     9    4    5 1
    10    4    7 1
    11    5    6 1
    12    7   38 1
    13    7   39 1
    14    7   40 1
    15    8   13 ar
    16    8    9 ar
    17    9   10 ar
    18    9   41 1
    19   10   11 ar
    20   10   42 1
    21   11   12 ar
    22   11   14 1
    23   12   13 ar
    24   12   43 1
    25   13   44 1
    26   14   15 1
    27   14   45 1
    28   14   46 1
    29   15   16 am
    30   15   47 1
    31   16   17 2
    32   16   18 1
    33   18   23 ar
    34   18   19 ar
    35   19   20 ar
    36   19   48 1
    37   20   21 ar
    38   21   27 1
    39   21   22 ar
    40   22   23 ar
    41   22   25 1
    42   23   24 1
    43   25   26 2
    44   25   49 1
    45   26   27 1
    46   27   28 1
    47   28   29 1
    48   28   50 1
    49   28   51 1
    50   29   34 ar
    51   29   30 ar
    52   30   31 ar
    53   30   52 1
    54   31   32 ar
    55   31   53 1
    56   32   33 ar
    57   32   54 1
    58   33   34 ar
    59   33   55 1
    60   34   56 1
@<TRIPOS>MOLECULE
CHEMBL243657
   71    76     0     0     0
SMALL
USER_CHARGES

@<TRIPOS>ATOM
      1 C1         -0.0184    1.5054    0.0103 C.3       1 <0>        -0.1192
      2 C2          0.0021   -0.0041    0.0020 C.2       1 <0>        -0.0618
      3 C3          0.0019   -0.5975   -1.1914 C.2       1 <0>        -0.1619
      4 C4         -0.0517   -2.0870   -1.3635 C.3       1 <0>         0.2133
      5 N1          0.3297   -2.7716   -0.1299 N.pl3     1 <0>        -0.7323
      6 C5          0.0909   -2.1992    1.1129 C.ar      1 <0>         0.2278
      7 C6          0.0246   -0.7933    1.2400 C.ar      1 <0>        -0.0585
      8 C7          0.0490   -0.2637    2.5235 C.ar      1 <0>        -0.0349
      9 C8         -0.3482   -1.0802    3.6322 C.ar      1 <0>        -0.0840
     10 C9         -0.3746   -2.4511    3.4634 C.ar      1 <0>        -0.0504
     11 C10        -0.1008   -3.0025    2.2236 C.ar      1 <0>        -0.1821
     12 C11        -0.7130   -0.3783    4.8812 C.ar      1 <0>        -0.0849
     13 C12        -0.7008    1.0295    4.8993 C.ar      1 <0>         0.1116
     14 C13        -1.0625    1.7245    6.0420 C.ar      1 <0>        -0.1179
     15 C14        -1.4225    1.0419    7.1871 C.ar      1 <0>        -0.1021
     16 C15        -1.4220   -0.3421    7.1934 C.ar      1 <0>         0.0728
     17 C16        -1.0658   -1.0535    6.0496 C.ar      1 <0>         0.1081
     18 O1         -1.0675   -2.4105    6.1238 O.3       1 <0>        -0.3261
     19 C17         0.1474   -3.0390    6.5374 C.3       1 <0>         0.0323
     20 O2         -1.7679   -1.0169    8.3240 O.3       1 <0>        -0.4875
     21 O3         -0.3078    1.7351    3.8013 O.3       1 <0>        -0.2373
     22 C18         0.5069    1.0648    2.9373 C.2       1 <0>         0.1322
     23 C19         1.7116    1.5828    2.5712 C.2       1 <0>        -0.0939
     24 C20         2.0873    2.8698    3.0070 C.2       1 <0>        -0.0256
     25 C21         3.2741    3.5843    2.7391 C.2       1 <0>        -0.2267
     26 C22         3.3791    4.8964    3.3283 C.2       1 <0>        -0.1161
     27 C23         2.3607    5.3480    4.0808 C.2       1 <0>        -0.2041
     28 S1          1.1806    4.0137    4.0314 S.3       1 <0>         0.1212
     29 C24         4.3012    3.0449    1.9395 C.2       1 <0>         0.4158
     30 O4          4.1783    1.9352    1.4594 O.2       1 <0>        -0.4626
     31 C25         5.5521    3.8440    1.6796 C.3       1 <0>        -0.1281
     32 C26         5.3210    4.7816    0.4928 C.3       1 <0>        -0.1054
     33 C27         6.5911    5.5929    0.2289 C.3       1 <0>        -0.1172
     34 C28         7.7466    4.6421   -0.0898 C.3       1 <0>        -0.1221
     35 C29         7.9778    3.7045    1.0970 C.3       1 <0>        -0.1193
     36 C30         6.7077    2.8932    1.3609 C.3       1 <0>        -0.1060
     37 C31        -1.4750   -2.5014   -1.7549 C.3       1 <0>        -0.1600
     38 C32         0.9069   -2.4985   -2.4881 C.3       1 <0>        -0.1551
     39 H1          1.0042    1.8827    0.0026 H         1 <0>         0.0733
     40 H2         -0.5456    1.8665   -0.8727 H         1 <0>         0.0690
     41 H3         -0.5286    1.8570    0.9071 H         1 <0>         0.0658
     42 H4          0.0389    0.0305   -2.0746 H         1 <0>         0.1283
     43 H5          0.7560   -3.6521   -0.1803 H         1 <0>         0.4054
     44 H6         -0.6064   -3.1235    4.2722 H         1 <0>         0.1456
     45 H7         -0.0380   -4.0773    2.1197 H         1 <0>         0.1302
     46 H8         -1.0636    2.8055    6.0355 H         1 <0>         0.1452
     47 H9         -1.7042    1.5880    8.0750 H         1 <0>         0.1469
     48 H10         0.9442   -2.7849    5.8384 H         1 <0>         0.0486
     49 H11         0.4149   -2.6915    7.5353 H         1 <0>         0.0547
     50 H12         0.0097   -4.1202    6.5540 H         1 <0>         0.0988
     51 H13        -2.7123   -1.2133    8.3914 H         1 <0>         0.3934
     52 H14         2.3794    1.0078    1.9469 H         1 <0>         0.1806
     53 H15         4.2579    5.5035    3.1686 H         1 <0>         0.1423
     54 H16         2.2761    6.2961    4.5910 H         1 <0>         0.1880
     55 H17         5.7984    4.4315    2.5641 H         1 <0>         0.0932
     56 H18         5.0748    4.1941   -0.3918 H         1 <0>         0.0673
     57 H19         4.4978    5.4590    0.7198 H         1 <0>         0.0675
     58 H20         6.4265    6.2608   -0.6166 H         1 <0>         0.0657
     59 H21         6.8373    6.1803    1.1134 H         1 <0>         0.0638
     60 H22         7.5004    4.0546   -0.9743 H         1 <0>         0.0626
     61 H23         8.6515    5.2201   -0.2778 H         1 <0>         0.0627
     62 H24         8.8010    3.0271    0.8700 H         1 <0>         0.0645
     63 H25         8.2240    4.2919    1.9815 H         1 <0>         0.0619
     64 H26         6.8723    2.2253    2.2064 H         1 <0>         0.0625
     65 H27         6.4615    2.3058    0.4764 H         1 <0>         0.0723
     66 H28        -1.7503   -2.0159   -2.6911 H         1 <0>         0.0675
     67 H29        -1.5168   -3.5833   -1.8806 H         1 <0>         0.0617
     68 H30        -2.1697   -2.1996   -0.9711 H         1 <0>         0.0572
     69 H31         1.9217   -2.1961   -2.2294 H         1 <0>         0.0642
     70 H32         0.8720   -3.5803   -2.6176 H         1 <0>         0.0635
     71 H33         0.6083   -2.0117   -3.4165 H         1 <0>         0.0741
@<TRIPOS>BOND
     1    1    2 1
     2    1   39 1
     3    1   40 1
     4    1   41 1
     5    2    7 1
     6    2    3 2
     7    3    4 1
     8    3   42 1
     9    4    5 1
    10    4   37 1
    11    4   38 1
    12    5    6 1
    13    5   43 1
    14    6   11 ar
    15    6    7 ar
    16    7    8 ar
    17    8   22 1
    18    8    9 ar
    19    9   10 ar
    20    9   12 1
    21   10   11 ar
    22   10   44 1
    23   11   45 1
    24   12   17 ar
    25   12   13 ar
    26   13   14 ar
    27   13   21 1
    28   14   15 ar
    29   14   46 1
    30   15   16 ar
    31   15   47 1
    32   16   17 ar
    33   16   20 1
    34   17   18 1
    35   18   19 1
    36   19   48 1
    37   19   49 1
    38   19   50 1
    39   20   51 1
    40   21   22 1
    41   22   23 2
    42   23   24 1
    43   23   52 1
    44   24   28 1
    45   24   25 2
    46   25   26 1
    47   25   29 1
    48   26   27 2
    49   26   53 1
    50   27   28 1
    51   27   54 1
    52   29   30 2
    53   29   31 1
    54   31   36 1
    55   31   32 1
    56   31   55 1
    57   32   33 1
    58   32   56 1
    59   32   57 1
    60   33   34 1
    61   33   58 1
    62   33   59 1
    63   34   35 1
    64   34   60 1
    65   34   61 1
    66   35   36 1
    67   35   62 1
    68   35   63 1
    69   36   64 1
    70   36   65 1
    71   37   66 1
    72   37   67 1
    73   37   68 1
    74   38   69 1
    75   38   70 1
    76   38   71 1
@<TRIPOS>MOLECULE
CHEMBL205978
   56    59     0     0     0
SMALL
USER_CHARGES

@<TRIPOS>ATOM
      1 C1         -0.0187    1.5258    0.0104 C.3       1 <0>        -0.1577
      2 C2          0.0021   -0.0041    0.0020 C.3       1 <0>         0.2172
      3 C3          0.6961   -0.4876   -1.2433 C.2       1 <0>        -0.1511
      4 C4          2.0016   -0.7252   -1.2521 C.2       1 <0>        -0.0423
      5 C5          2.7883   -0.5287   -0.0179 C.ar      1 <0>        -0.1180
      6 C6          4.1748   -0.4520   -0.0475 C.ar      1 <0>        -0.0490
      7 C7          4.8770   -0.2701    1.1415 C.ar      1 <0>        -0.0869
      8 C8          4.1917   -0.1659    2.3526 C.ar      1 <0>        -0.0444
      9 C9          2.8132   -0.2405    2.3828 C.ar      1 <0>        -0.1814
     10 C10         2.1070   -0.4188    1.2063 C.ar      1 <0>         0.2196
     11 N1          0.7127   -0.4886    1.1924 N.pl3     1 <0>        -0.7442
     12 C11         6.3578   -0.1873    1.1203 C.ar      1 <0>        -0.0654
     13 C12         7.1029   -1.1517    0.4455 C.ar      1 <0>        -0.0721
     14 C13         8.4806   -1.0700    0.4283 C.ar      1 <0>        -0.1546
     15 C14         9.1253   -0.0330    1.0793 C.ar      1 <0>        -0.0823
     16 C15         8.3956    0.9290    1.7518 C.ar      1 <0>        -0.2078
     17 C16         7.0118    0.8621    1.7726 C.ar      1 <0>         0.1357
     18 O1          6.2932    1.8104    2.4286 O.3       1 <0>        -0.3075
     19 C17         7.0293    2.8526    3.0720 C.3       1 <0>         0.0253
     20 C18         2.6778   -1.1936   -2.5148 C.3       1 <0>        -0.0481
     21 S1          3.6201    0.1763   -3.2400 S.3       1 <0>        -0.2366
     22 C19         4.3625   -0.5425   -4.7309 C.3       1 <0>        -0.0637
     23 C20         5.4195   -1.5958   -4.3397 C.3       1 <0>        -0.1220
     24 C21         6.5402   -1.4190   -5.3941 C.3       1 <0>        -0.1220
     25 C22         6.5812    0.1162   -5.5953 C.3       1 <0>        -0.1228
     26 C23         5.1011    0.5460   -5.5292 C.3       1 <0>        -0.1020
     27 C24        -1.4340   -0.5316    0.0180 C.3       1 <0>        -0.1526
     28 H1          1.0039    1.9031    0.0027 H         1 <0>         0.0589
     29 H2         -0.5459    1.8868   -0.8726 H         1 <0>         0.0653
     30 H3         -0.5289    1.8773    0.9072 H         1 <0>         0.0601
     31 H4          0.1220   -0.6434   -2.1447 H         1 <0>         0.1232
     32 H5          4.7043   -0.5332   -0.9852 H         1 <0>         0.1344
     33 H6          4.7424   -0.0265    3.2711 H         1 <0>         0.1216
     34 H7          2.2873   -0.1599    3.3227 H         1 <0>         0.1228
     35 H8          0.2254   -0.8478    1.9503 H         1 <0>         0.4017
     36 H9          6.6031   -1.9626   -0.0634 H         1 <0>         0.1275
     37 H10         9.0575   -1.8183   -0.0947 H         1 <0>         0.1240
     38 H11        10.2036    0.0246    1.0622 H         1 <0>         0.1236
     39 H12         8.9044    1.7360    2.2580 H         1 <0>         0.1278
     40 H13         6.3367    3.5407    3.5567 H         1 <0>         0.0999
     41 H14         7.6942    2.4198    3.8194 H         1 <0>         0.0549
     42 H15         7.6185    3.3923    2.3306 H         1 <0>         0.0549
     43 H16         3.3538   -2.0161   -2.2812 H         1 <0>         0.0897
     44 H17         1.9246   -1.5330   -3.2258 H         1 <0>         0.0870
     45 H18         3.5899   -0.9995   -5.3492 H         1 <0>         0.0860
     46 H19         5.8029   -1.3980   -3.3387 H         1 <0>         0.0801
     47 H20         4.9974   -2.5991   -4.3962 H         1 <0>         0.0665
     48 H21         7.4929   -1.7838   -5.0101 H         1 <0>         0.0705
     49 H22         6.2787   -1.9236   -6.3241 H         1 <0>         0.0677
     50 H23         7.1522    0.5905   -4.7970 H         1 <0>         0.0696
     51 H24         7.0068    0.3623   -6.5681 H         1 <0>         0.0689
     52 H25         4.6875    0.6167   -6.5352 H         1 <0>         0.0747
     53 H26         5.0135    1.5062   -5.0208 H         1 <0>         0.0744
     54 H27        -1.9638   -0.1698   -0.8632 H         1 <0>         0.0740
     55 H28        -1.4208   -1.6215    0.0120 H         1 <0>         0.0630
     56 H29        -1.9405   -0.1793    0.9166 H         1 <0>         0.0641
@<TRIPOS>BOND
     1    1    2 1
     2    1   28 1
     3    1   29 1
     4    1   30 1
     5    2   11 1
     6    2    3 1
     7    2   27 1
     8    3    4 2
     9    3   31 1
    10    4    5 1
    11    4   20 1
    12    5   10 ar
    13    5    6 ar
    14    6    7 ar
    15    6   32 1
    16    7    8 ar
    17    7   12 1
    18    8    9 ar
    19    8   33 1
    20    9   10 ar
    21    9   34 1
    22   10   11 1
    23   11   35 1
    24   12   17 ar
    25   12   13 ar
    26   13   14 ar
    27   13   36 1
    28   14   15 ar
    29   14   37 1
    30   15   16 ar
    31   15   38 1
    32   16   17 ar
    33   16   39 1
    34   17   18 1
    35   18   19 1
    36   19   40 1
    37   19   41 1
    38   19   42 1
    39   20   21 1
    40   20   43 1
    41   20   44 1
    42   21   22 1
    43   22   26 1
    44   22   23 1
    45   22   45 1
    46   23   24 1
    47   23   46 1
    48   23   47 1
    49   24   25 1
    50   24   48 1
    51   24   49 1
    52   25   26 1
    53   25   50 1
    54   25   51 1
    55   26   52 1
    56   26   53 1
    57   27   54 1
    58   27   55 1
    59   27   56 1
@<TRIPOS>MOLECULE
CHEMBL514185
   50    54     0     0     0
SMALL
USER_CHARGES

@<TRIPOS>ATOM
      1 C1         -0.0342    1.5086    0.0201 C.3       1 <0>        -0.1455
      2 C2         -0.0081   -0.0210    0.0018 C.3       1 <0>        -0.0625
      3 C3         -1.4414   -0.5447   -0.0429 C.3       1 <0>        -0.1065
      4 C4         -1.7519   -1.4373    1.1782 C.3       1 <0>        -0.0041
      5 C5         -1.4323   -0.5818    2.3943 C.ar      1 <0>        -0.0789
      6 C6         -2.3178   -0.2784    3.3887 C.ar      1 <0>        -0.1043
      7 C7         -1.8910    0.5162    4.4450 C.ar      1 <0>        -0.1177
      8 C8         -0.5926    0.9892    4.4858 C.ar      1 <0>        -0.1188
      9 C9          0.3025    0.6767    3.4707 C.ar      1 <0>        -0.1031
     10 C10        -0.1239   -0.1049    2.4352 C.ar      1 <0>        -0.0795
     11 C11         0.7371   -0.5288    1.2554 C.3       1 <0>         0.0208
     12 C12         0.6222   -2.0445    1.2061 C.ar      1 <0>        -0.0726
     13 C13        -0.6860   -2.5220    1.1657 C.ar      1 <0>        -0.0898
     14 C14        -0.9387   -3.8632    1.1190 C.ar      1 <0>        -0.1085
     15 C15         0.1334   -4.7463    1.1119 C.ar      1 <0>        -0.1198
     16 C16         1.4315   -4.2724    1.1522 C.ar      1 <0>        -0.1211
     17 C17         1.6811   -2.9068    1.1991 C.ar      1 <0>        -0.0806
     18 C18         0.7245   -0.4869   -1.2299 C.2       1 <0>         0.5261
     19 O1          1.7236   -1.1660   -1.1209 O.2       1 <0>        -0.4941
     20 N1          0.2696   -0.1489   -2.4528 N.am      1 <0>        -0.6686
     21 C19         1.0009   -0.5022   -3.5947 C.ar      1 <0>         0.1808
     22 C20         1.7052   -1.6969   -3.6275 C.ar      1 <0>        -0.1106
     23 C21         2.4253   -2.0434   -4.7549 C.ar      1 <0>        -0.0391
     24 C22         2.4461   -1.2018   -5.8519 C.ar      1 <0>        -0.0522
     25 C23         1.7471   -0.0094   -5.8264 C.ar      1 <0>        -0.0617
     26 C24         1.0180    0.3427   -4.7020 C.ar      1 <0>         0.0811
     27 O2          0.3255    1.5126   -4.6775 O.3       1 <0>        -0.4809
     28 N2          3.2193   -1.5785   -7.0566 N.pl3     1 <0>         0.0354
     29 O3          3.8315   -2.6208   -7.0806 O.2       1 <0>        -0.1541
     30 O4          3.2386   -0.8439   -8.0167 O.3       1 <0>        -0.1575
     31 H1          0.9871    1.8895    0.0189 H         1 <0>         0.0656
     32 H2         -0.5592    1.8737   -0.8626 H         1 <0>         0.0647
     33 H3         -0.5491    1.8525    0.9172 H         1 <0>         0.0799
     34 H4         -2.1298    0.3004   -0.0514 H         1 <0>         0.0872
     35 H5         -1.5805   -1.1260   -0.9544 H         1 <0>         0.0735
     36 H6         -2.7671   -1.8342    1.1715 H         1 <0>         0.1095
     37 H7         -3.3316   -0.6491    3.3542 H         1 <0>         0.1258
     38 H8         -2.5783    0.7666    5.2396 H         1 <0>         0.1232
     39 H9         -0.2722    1.6060    5.3124 H         1 <0>         0.1233
     40 H10         1.3174    1.0451    3.4999 H         1 <0>         0.1254
     41 H11         1.7625   -0.1651    1.3207 H         1 <0>         0.1091
     42 H12        -1.9539   -4.2307    1.0886 H         1 <0>         0.1234
     43 H13        -0.0483   -5.8103    1.0750 H         1 <0>         0.1213
     44 H14         2.2570   -4.9687    1.1469 H         1 <0>         0.1214
     45 H15         2.6942   -2.5339    1.2304 H         1 <0>         0.1239
     46 H16        -0.5640    0.3389   -2.5424 H         1 <0>         0.4210
     47 H17         1.6909   -2.3559   -2.7720 H         1 <0>         0.1677
     48 H18         2.9734   -2.9736   -4.7792 H         1 <0>         0.1605
     49 H19         1.7661    0.6460   -6.6846 H         1 <0>         0.1641
     50 H20         0.8346    2.2641   -4.3443 H         1 <0>         0.3975
@<TRIPOS>BOND
     1    1    2 1
     2    1   31 1
     3    1   32 1
     4    1   33 1
     5    2   11 1
     6    2    3 1
     7    2   18 1
     8    3    4 1
     9    3   34 1
    10    3   35 1
    11    4   13 1
    12    4    5 1
    13    4   36 1
    14    5   10 ar
    15    5    6 ar
    16    6    7 ar
    17    6   37 1
    18    7    8 ar
    19    7   38 1
    20    8    9 ar
    21    8   39 1
    22    9   10 ar
    23    9   40 1
    24   10   11 1
    25   11   12 1
    26   11   41 1
    27   12   17 ar
    28   12   13 ar
    29   13   14 ar
    30   14   15 ar
    31   14   42 1
    32   15   16 ar
    33   15   43 1
    34   16   17 ar
    35   16   44 1
    36   17   45 1
    37   18   19 2
    38   18   20 am
    39   20   21 1
    40   20   46 1
    41   21   26 ar
    42   21   22 ar
    43   22   23 ar
    44   22   47 1
    45   23   24 ar
    46   23   48 1
    47   24   25 ar
    48   24   28 1
    49   25   26 ar
    50   25   49 1
    51   26   27 1
    52   27   50 1
    53   28   29 2
    54   28   30 1
@<TRIPOS>MOLECULE
CHEMBL514185__1
   50    54     0     0     0
SMALL
USER_CHARGES

@<TRIPOS>ATOM
      1 C1         -0.0352    1.5410    0.0217 C.3       1 <0>        -0.1467
      2 C2         -0.0039    0.0113    0.0130 C.3       1 <0>        -0.0627
      3 C3          0.6806   -0.4671   -1.2649 C.3       1 <0>        -0.1045
      4 C4          1.9301   -1.3176   -0.9486 C.3       1 <0>        -0.0042
      5 C5          1.4377   -2.4352   -0.0424 C.ar      1 <0>        -0.0892
      6 C6          1.5718   -3.7686   -0.3054 C.ar      1 <0>        -0.1093
      7 C7          1.0744   -4.6848    0.6124 C.ar      1 <0>        -0.1204
      8 C8          0.4557   -4.2512    1.7702 C.ar      1 <0>        -0.1209
      9 C9          0.3226   -2.8934    2.0310 C.ar      1 <0>        -0.0797
     10 C10         0.8139   -1.9982    1.1242 C.ar      1 <0>        -0.0729
     11 C11         0.7420   -0.4861    1.2703 C.3       1 <0>         0.0204
     12 C12         2.1750   -0.0041    1.1058 C.ar      1 <0>        -0.0786
     13 C13         2.7995   -0.4413   -0.0603 C.ar      1 <0>        -0.0800
     14 C14         4.0881   -0.0846   -0.3383 C.ar      1 <0>        -0.1045
     15 C15         4.7679    0.7242    0.5634 C.ar      1 <0>        -0.1177
     16 C16         4.1479    1.1585    1.7202 C.ar      1 <0>        -0.1187
     17 C17         2.8372    0.7911    1.9969 C.ar      1 <0>        -0.1029
     18 C18        -1.4173   -0.5109    0.0390 C.2       1 <0>         0.5262
     19 O1         -1.7856   -1.2185    0.9527 O.2       1 <0>        -0.4943
     20 N1         -2.2720   -0.1916   -0.9529 N.am      1 <0>        -0.6686
     21 C19        -3.5563   -0.7515   -0.9783 C.ar      1 <0>         0.1813
     22 C20        -4.2282   -1.0050    0.2086 C.ar      1 <0>        -0.1107
     23 C21        -5.4949   -1.5568    0.1809 C.ar      1 <0>        -0.0391
     24 C22        -6.0956   -1.8574   -1.0277 C.ar      1 <0>        -0.0523
     25 C23        -5.4320   -1.6080   -2.2146 C.ar      1 <0>        -0.0616
     26 C24        -4.1641   -1.0497   -2.1957 C.ar      1 <0>         0.0809
     27 O2         -3.5125   -0.7986   -3.3624 O.3       1 <0>        -0.4809
     28 N2         -7.4525   -2.4483   -1.0508 N.pl3     1 <0>         0.0355
     29 O3         -8.0341   -2.6674   -0.0138 O.2       1 <0>        -0.1541
     30 O4         -7.9793   -2.7117   -2.1066 O.3       1 <0>        -0.1576
     31 H1          0.9848    1.9253    0.0190 H         1 <0>         0.0805
     32 H2         -0.5606    1.8987   -0.8638 H         1 <0>         0.0639
     33 H3         -0.5521    1.8887    0.9162 H         1 <0>         0.0671
     34 H4         -0.0222   -1.0669   -1.8431 H         1 <0>         0.0726
     35 H5          0.9789    0.3991   -1.8556 H         1 <0>         0.0869
     36 H6          2.4468   -1.6682   -1.8420 H         1 <0>         0.1091
     37 H7          2.0555   -4.1045   -1.2107 H         1 <0>         0.1232
     38 H8          1.1712   -5.7431    0.4201 H         1 <0>         0.1208
     39 H9          0.0730   -4.9731    2.4765 H         1 <0>         0.1210
     40 H10        -0.1606   -2.5519    2.9345 H         1 <0>         0.1240
     41 H11         0.2724   -0.1674    2.2009 H         1 <0>         0.1099
     42 H12         4.5700   -0.4255   -1.2427 H         1 <0>         0.1257
     43 H13         5.7874    1.0161    0.3593 H         1 <0>         0.1232
     44 H14         4.6865    1.7871    2.4138 H         1 <0>         0.1234
     45 H15         2.3506    1.1286    2.9001 H         1 <0>         0.1257
     46 H16        -1.9982    0.4257   -1.6491 H         1 <0>         0.4211
     47 H17        -3.7612   -0.7715    1.1540 H         1 <0>         0.1676
     48 H18        -6.0168   -1.7540    1.1056 H         1 <0>         0.1607
     49 H19        -5.9038   -1.8446   -3.1569 H         1 <0>         0.1640
     50 H20        -2.9718   -1.5358   -3.6774 H         1 <0>         0.3973
@<TRIPOS>BOND
     1    1    2 1
     2    1   31 1
     3    1   32 1
     4    1   33 1
     5    2   11 1
     6    2    3 1
     7    2   18 1
     8    3    4 1
     9    3   34 1
    10    3   35 1
    11    4   13 1
    12    4    5 1
    13    4   36 1
    14    5   10 ar
    15    5    6 ar
    16    6    7 ar
    17    6   37 1
    18    7    8 ar
    19    7   38 1
    20    8    9 ar
    21    8   39 1
    22    9   10 ar
    23    9   40 1
    24   10   11 1
    25   11   12 1
    26   11   41 1
    27   12   17 ar
    28   12   13 ar
    29   13   14 ar
    30   14   15 ar
    31   14   42 1
    32   15   16 ar
    33   15   43 1
    34   16   17 ar
    35   16   44 1
    36   17   45 1
    37   18   19 2
    38   18   20 am
    39   20   21 1
    40   20   46 1
    41   21   26 ar
    42   21   22 ar
    43   22   23 ar
    44   22   47 1
    45   23   24 ar
    46   23   48 1
    47   24   25 ar
    48   24   28 1
    49   25   26 ar
    50   25   49 1
    51   26   27 1
    52   27   50 1
    53   28   29 2
    54   28   30 1
@<TRIPOS>MOLECULE
CHEMBL1091440
   56    60     0     0     0
SMALL
USER_CHARGES

@<TRIPOS>ATOM
      1 C1         -0.0184    1.5028    0.0103 C.3       1 <0>        -0.0862
      2 C2          0.0021   -0.0041    0.0020 C.2       1 <0>         0.1385
      3 C3          0.0084   -0.8593   -1.1808 C.ar      1 <0>        -0.2280
      4 C4         -0.0015   -0.6160   -2.5577 C.ar      1 <0>         0.1432
      5 C5          0.0092   -1.7180   -3.4168 C.ar      1 <0>        -0.2311
      6 C6          0.0291   -3.0089   -2.8710 C.ar      1 <0>         0.2167
      7 N1          0.0380   -3.2019   -1.5733 N.ar      1 <0>        -0.4922
      8 C7          0.0285   -2.1890   -0.7124 C.ar      1 <0>         0.3493
      9 N2          0.0337   -2.1199    0.6548 N.pl3     1 <0>        -0.3320
     10 N3          0.0230   -0.7786    1.0490 N.2       1 <0>        -0.2291
     11 C8          0.0522   -3.2195    1.5219 C.ar      1 <0>         0.1499
     12 C9         -0.6186   -4.3865    1.1802 C.ar      1 <0>        -0.1118
     13 C10        -0.5981   -5.4693    2.0372 C.ar      1 <0>        -0.0992
     14 C11         0.0893   -5.3923    3.2346 C.ar      1 <0>        -0.1177
     15 C12         0.7579   -4.2315    3.5781 C.ar      1 <0>        -0.1022
     16 C13         0.7460   -3.1472    2.7227 C.ar      1 <0>        -0.1108
     17 C14        -0.0010   -1.5252   -4.8800 C.2       1 <0>         0.5686
     18 O1         -0.0187   -0.4019   -5.3451 O.2       1 <0>        -0.5115
     19 N4          0.0095   -2.5942   -5.7007 N.am      1 <0>        -0.7225
     20 C15        -0.0006   -2.4029   -7.1531 C.3       1 <0>         0.1633
     21 C16         0.0143   -3.7457   -7.8368 C.ar      1 <0>        -0.1088
     22 C17         1.2203   -4.3460   -8.1505 C.ar      1 <0>        -0.0952
     23 C18         1.2397   -5.5756   -8.7771 C.ar      1 <0>        -0.1037
     24 C19         0.0416   -6.2125   -9.0932 C.ar      1 <0>        -0.0038
     25 C20        -1.1703   -5.6036   -8.7746 C.ar      1 <0>        -0.1053
     26 C21        -1.1781   -4.3762   -8.1433 C.ar      1 <0>        -0.0953
     27 C22         0.0563   -7.5348   -9.7676 C.2       1 <0>        -0.2266
     28 C23         0.5468   -7.8029  -11.0684 C.2       1 <0>         0.1225
     29 N5          0.3882   -9.0728  -11.3039 N.2       1 <0>        -0.3184
     30 O2         -0.2086   -9.6638  -10.1645 O.3       1 <0>        -0.0774
     31 C24        -0.3932   -8.7053   -9.2449 C.2       1 <0>         0.0931
     32 C25        -0.9957   -8.8927   -7.8763 C.3       1 <0>        -0.0903
     33 C26         1.1466   -6.7946  -12.0142 C.3       1 <0>        -0.0880
     34 Cl1        -0.0269    1.0043   -3.1804 Cl        1 <0>         0.0082
     35 H1          1.0042    1.8801    0.0026 H         1 <0>         0.0944
     36 H2         -0.5455    1.8639   -0.8728 H         1 <0>         0.0902
     37 H3         -0.5286    1.8543    0.9071 H         1 <0>         0.0898
     38 H4          0.0371   -3.8625   -3.5325 H         1 <0>         0.1776
     39 H5         -1.1560   -4.4471    0.2453 H         1 <0>         0.1348
     40 H6         -1.1199   -6.3770    1.7722 H         1 <0>         0.1342
     41 H7          0.1039   -6.2404    3.9032 H         1 <0>         0.1308
     42 H8          1.2936   -4.1743    4.5141 H         1 <0>         0.1338
     43 H9          1.2723   -2.2426    2.9893 H         1 <0>         0.1329
     44 H10         0.0236   -3.4904   -5.3296 H         1 <0>         0.3995
     45 H11        -0.8996   -1.8582   -7.4416 H         1 <0>         0.0815
     46 H12         0.8802   -1.8338   -7.4507 H         1 <0>         0.0815
     47 H13         2.1485   -3.8514   -7.9050 H         1 <0>         0.1283
     48 H14         2.1819   -6.0431   -9.0222 H         1 <0>         0.1252
     49 H15        -2.1019   -6.0928   -9.0178 H         1 <0>         0.1250
     50 H16        -2.1170   -3.9053   -7.8919 H         1 <0>         0.1284
     51 H17        -2.0751   -8.7515   -7.9322 H         1 <0>         0.0969
     52 H18        -0.7790   -9.8993   -7.5187 H         1 <0>         0.0896
     53 H19        -0.5689   -8.1629   -7.1884 H         1 <0>         0.0960
     54 H20         2.2231   -6.7399  -11.8520 H         1 <0>         0.0911
     55 H21         0.9490   -7.0984  -13.0422 H         1 <0>         0.0842
     56 H22         0.7016   -5.8163  -11.8325 H         1 <0>         0.0882
@<TRIPOS>BOND
     1    1    2 1
     2    1   35 1
     3    1   36 1
     4    1   37 1
     5    2   10 2
     6    2    3 1
     7    3    8 ar
     8    3    4 ar
     9    4    5 ar
    10    4   34 1
    11    5    6 ar
    12    5   17 1
    13    6    7 ar
    14    6   38 1
    15    7    8 ar
    16    8    9 1
    17    9   10 1
    18    9   11 1
    19   11   16 ar
    20   11   12 ar
    21   12   13 ar
    22   12   39 1
    23   13   14 ar
    24   13   40 1
    25   14   15 ar
    26   14   41 1
    27   15   16 ar
    28   15   42 1
    29   16   43 1
    30   17   18 2
    31   17   19 am
    32   19   20 1
    33   19   44 1
    34   20   21 1
    35   20   45 1
    36   20   46 1
    37   21   26 ar
    38   21   22 ar
    39   22   23 ar
    40   22   47 1
    41   23   24 ar
    42   23   48 1
    43   24   25 ar
    44   24   27 1
    45   25   26 ar
    46   25   49 1
    47   26   50 1
    48   27   31 2
    49   27   28 1
    50   28   29 2
    51   28   33 1
    52   29   30 1
    53   30   31 1
    54   31   32 1
    55   32   51 1
    56   32   52 1
    57   32   53 1
    58   33   54 1
    59   33   55 1
    60   33   56 1
@<TRIPOS>MOLECULE
CHEMBL131681
   40    42     0     0     0
SMALL
USER_CHARGES

@<TRIPOS>ATOM
      1 C1         -0.1315    1.6359    0.9733 C.3       1 <0>        -0.1445
      2 C2         -0.1746    0.1140    0.8223 C.3       1 <0>        -0.0586
      3 C3         -0.0280   -0.2512   -0.6341 C.ar      1 <0>        -0.1369
      4 C4         -1.1093   -0.0472   -1.4733 C.ar      1 <0>        -0.0541
      5 C5         -1.0175   -0.3594   -2.8261 C.ar      1 <0>        -0.0780
      6 C6          0.1705   -0.8793   -3.3369 C.ar      1 <0>        -0.0637
      7 C7          1.2435   -1.0854   -2.4991 C.ar      1 <0>        -0.1783
      8 C8          1.1490   -0.7775   -1.1421 C.ar      1 <0>         0.2198
      9 N1          2.2599   -1.0312   -0.3305 N.pl3     1 <0>        -0.7348
     10 C9          2.3448   -0.4255    1.0050 C.3       1 <0>         0.1349
     11 C10         0.9564   -0.5029    1.6124 C.2       1 <0>         0.3691
     12 O1          0.7638   -1.0336    2.6799 O.2       1 <0>        -0.4286
     13 C11         2.7842    1.0355    0.8893 C.3       1 <0>        -0.1631
     14 C12         3.3377   -1.2045    1.8700 C.3       1 <0>        -0.1493
     15 C13        -2.1806   -0.1399   -3.7219 C.2       1 <0>        -0.0867
     16 C14        -2.1074   -0.4503   -5.0700 C.2       1 <0>        -0.0668
     17 C15        -3.2507   -0.2046   -5.8081 C.2       1 <0>        -0.1593
     18 S1         -4.3637    0.4462   -4.5782 S.3       1 <0>         0.2743
     19 C16        -3.3604    0.3714   -3.2334 C.2       1 <0>        -0.2329
     20 C17        -3.4813   -0.4185   -7.2051 C.1       1 <0>         0.2925
     21 N2         -3.6643   -0.5882   -8.3134 N.1       1 <0>        -0.3959
     22 C18        -1.5112   -0.4131    1.3483 C.3       1 <0>        -0.1343
     23 H1          0.7514    2.0264    0.4671 H         1 <0>         0.0741
     24 H2         -1.0270    2.0706    0.5291 H         1 <0>         0.0726
     25 H3         -0.0882    1.8950    2.0312 H         1 <0>         0.0633
     26 H4         -2.0289    0.3567   -1.0763 H         1 <0>         0.1261
     27 H5          0.2491   -1.1201   -4.3868 H         1 <0>         0.1265
     28 H6          2.1642   -1.4878   -2.8952 H         1 <0>         0.1262
     29 H7          2.9730   -1.6064   -0.6491 H         1 <0>         0.4075
     30 H8          2.2109    1.5261    0.1027 H         1 <0>         0.0765
     31 H9          2.6090    1.5437    1.8375 H         1 <0>         0.0698
     32 H10         3.8457    1.0774    0.6454 H         1 <0>         0.0728
     33 H11         4.3222   -1.1822    1.4026 H         1 <0>         0.0714
     34 H12         3.3943   -0.7484    2.8584 H         1 <0>         0.0797
     35 H13         3.0041   -2.2378    1.9652 H         1 <0>         0.0681
     36 H14        -1.2129   -0.8585   -5.5169 H         1 <0>         0.1516
     37 H15        -3.5885    0.6606   -2.2182 H         1 <0>         0.1937
     38 H16        -2.3269    0.0318    0.7784 H         1 <0>         0.0673
     39 H17        -1.5418   -1.4973    1.2408 H         1 <0>         0.0606
     40 H18        -1.6169   -0.1493    2.4006 H         1 <0>         0.0674
@<TRIPOS>BOND
     1    1    2 1
     2    1   23 1
     3    1   24 1
     4    1   25 1
     5    2   11 1
     6    2    3 1
     7    2   22 1
     8    3    8 ar
     9    3    4 ar
    10    4    5 ar
    11    4   26 1
    12    5    6 ar
    13    5   15 1
    14    6    7 ar
    15    6   27 1
    16    7    8 ar
    17    7   28 1
    18    8    9 1
    19    9   10 1
    20    9   29 1
    21   10   11 1
    22   10   13 1
    23   10   14 1
    24   11   12 2
    25   13   30 1
    26   13   31 1
    27   13   32 1
    28   14   33 1
    29   14   34 1
    30   14   35 1
    31   15   19 2
    32   15   16 1
    33   16   17 2
    34   16   36 1
    35   17   18 1
    36   17   20 1
    37   18   19 1
    38   19   37 1
    39   20   21 3
    40   22   38 1
    41   22   39 1
    42   22   40 1
@<TRIPOS>MOLECULE
CHEMBL457036
   60    63     0     0     0
SMALL
USER_CHARGES

@<TRIPOS>ATOM
      1 C1         -0.0187    1.5258    0.0104 C.3       1 <0>        -0.1622
      2 C2          0.0021   -0.0041    0.0020 C.3       1 <0>        -0.1204
      3 C3          0.7182   -0.4975   -1.2568 C.3       1 <0>        -0.0066
      4 C4          2.1560    0.0171   -1.2406 C.3       1 <0>        -0.1058
      5 C5          2.8430   -0.4745    0.0377 C.3       1 <0>        -0.1419
      6 C6          2.8304   -2.0025    0.0839 C.3       1 <0>         0.2540
      7 C7          1.3876   -2.5161    0.0380 C.3       1 <0>        -0.0972
      8 C8          0.7308   -2.0253   -1.2508 C.3       1 <0>        -0.0741
      9 H1          1.2981   -2.3872   -2.1083 H         1 <0>         0.0767
     10 C9         -0.7137   -2.5161   -1.3521 C.3       1 <0>        -0.1166
     11 C10        -1.2263   -2.2031   -2.7574 C.3       1 <0>        -0.0810
     12 C11        -0.9321   -0.7765   -3.1403 C.ar      1 <0>        -0.0321
     13 C12        -0.0156    0.0122   -2.4645 C.ar      1 <0>        -0.0954
     14 C13         0.2221    1.3165   -2.8750 C.ar      1 <0>        -0.0726
     15 C14        -0.4299    1.8374   -3.9728 C.ar      1 <0>        -0.2120
     16 C15        -1.3327    1.0500   -4.6723 C.ar      1 <0>         0.1292
     17 C16        -1.6058   -0.2520   -4.2348 C.ar      1 <0>        -0.1538
     18 O1         -1.9840    1.5545   -5.7531 O.3       1 <0>        -0.3132
     19 C17        -1.6910    2.9055   -6.1148 C.3       1 <0>         0.1105
     20 C18        -2.5006    3.2880   -7.3269 C.ar      1 <0>        -0.1470
     21 C19        -3.3693    2.3761   -7.9073 C.ar      1 <0>        -0.0498
     22 C20        -4.0937    2.7717   -9.0211 C.ar      1 <0>        -0.1784
     23 C21        -3.9273    4.0528   -9.5126 C.ar      1 <0>         0.1050
     24 N1         -3.0916    4.8935   -8.9351 N.ar      1 <0>        -0.4818
     25 C22        -2.3910    4.5536   -7.8707 C.ar      1 <0>         0.1367
     26 C23        -1.4551    5.5549   -7.2441 C.3       1 <0>        -0.1117
     27 C24         3.5745   -2.5324   -1.0703 C.1       1 <0>        -0.2144
     28 C25         4.1680   -2.9549   -1.9909 C.1       1 <0>        -0.1646
     29 C26         4.9122   -3.4847   -3.1452 C.3       1 <0>        -0.0459
     30 O2          3.4534   -2.4457    1.2912 O.3       1 <0>        -0.5498
     31 H2          1.0039    1.9031    0.0027 H         1 <0>         0.0556
     32 H3         -0.5459    1.8868   -0.8726 H         1 <0>         0.0619
     33 H4         -0.5289    1.8773    0.9072 H         1 <0>         0.0532
     34 H5          0.5293   -0.3651    0.8851 H         1 <0>         0.0744
     35 H6         -1.0205   -0.3814    0.0098 H         1 <0>         0.0677
     36 H7          2.6899   -0.3632   -2.1115 H         1 <0>         0.0669
     37 H8          2.1541    1.1069   -1.2582 H         1 <0>         0.0740
     38 H9          3.8738   -0.1206    0.0534 H         1 <0>         0.0679
     39 H10         2.3143   -0.0820    0.9064 H         1 <0>         0.0860
     40 H11         1.3871   -3.6060    0.0562 H         1 <0>         0.0746
     41 H12         0.8364   -2.1342    0.8973 H         1 <0>         0.0853
     42 H13        -0.7498   -3.5915   -1.1784 H         1 <0>         0.0719
     43 H14        -1.3292   -2.0028   -0.6133 H         1 <0>         0.0741
     44 H15        -0.7435   -2.8711   -3.4707 H         1 <0>         0.0785
     45 H16        -2.3035   -2.3665   -2.7893 H         1 <0>         0.0787
     46 H17         0.9247    1.9293   -2.3297 H         1 <0>         0.1271
     47 H18        -0.2390    2.8531   -4.2862 H         1 <0>         0.1266
     48 H19        -2.3154   -0.8651   -4.7706 H         1 <0>         0.1288
     49 H20        -1.9437    3.5665   -5.2857 H         1 <0>         0.0793
     50 H21        -0.6292    2.9985   -6.3429 H         1 <0>         0.0790
     51 H22        -3.4786    1.3812   -7.5015 H         1 <0>         0.1432
     52 H23        -4.7792    2.0874   -9.4989 H         1 <0>         0.1382
     53 H24        -4.4880    4.3688  -10.3799 H         1 <0>         0.1589
     54 H25        -0.4703    5.4684   -7.7031 H         1 <0>         0.0824
     55 H26        -1.8421    6.5617   -7.4012 H         1 <0>         0.0827
     56 H27        -1.3761    5.3587   -6.1748 H         1 <0>         0.0738
     57 H28         4.9041   -4.5743   -3.1136 H         1 <0>         0.0818
     58 H29         4.4421   -3.1445   -4.0678 H         1 <0>         0.0817
     59 H30         5.9415   -3.1278   -3.1088 H         1 <0>         0.0814
     60 H31         4.3737   -2.1642    1.3852 H         1 <0>         0.3805
@<TRIPOS>BOND
     1    1    2 1
     2    1   31 1
     3    1   32 1
     4    1   33 1
     5    2    3 1
     6    2   34 1
     7    2   35 1
     8    3    8 1
     9    3   13 1
    10    3    4 1
    11    4    5 1
    12    4   36 1
    13    4   37 1
    14    5    6 1
    15    5   38 1
    16    5   39 1
    17    6    7 1
    18    6   27 1
    19    6   30 1
    20    7    8 1
    21    7   40 1
    22    7   41 1
    23    8    9 1
    24    8   10 1
    25   10   11 1
    26   10   42 1
    27   10   43 1
    28   11   12 1
    29   11   44 1
    30   11   45 1
    31   12   17 ar
    32   12   13 ar
    33   13   14 ar
    34   14   15 ar
    35   14   46 1
    36   15   16 ar
    37   15   47 1
    38   16   17 ar
    39   16   18 1
    40   17   48 1
    41   18   19 1
    42   19   20 1
    43   19   49 1
    44   19   50 1
    45   20   25 ar
    46   20   21 ar
    47   21   22 ar
    48   21   51 1
    49   22   23 ar
    50   22   52 1
    51   23   24 ar
    52   23   53 1
    53   24   25 ar
    54   25   26 1
    55   26   54 1
    56   26   55 1
    57   26   56 1
    58   27   28 3
    59   28   29 1
    60   29   57 1
    61   29   58 1
    62   29   59 1
    63   30   60 1
@<TRIPOS>MOLECULE
CHEMBL232434
   71    76     0     0     0
SMALL
USER_CHARGES

@<TRIPOS>ATOM
      1 C1          0.1113    1.6111    0.2974 C.3       1 <0>        -0.1532
      2 C2          0.1783    0.0830    0.2624 C.3       1 <0>        -0.0359
      3 C3         -1.2257   -0.4962    0.2593 C.3       1 <0>        -0.0982
      4 C4         -1.9864    0.1513    1.4273 C.3       1 <0>        -0.0099
      5 H1         -2.9472   -0.3486    1.5504 H         1 <0>         0.0994
      6 C5         -1.1978    0.0370    2.7131 C.2       1 <0>        -0.0902
      7 C6         -1.8514   -0.2821    3.8295 C.2       1 <0>        -0.1171
      8 C7         -3.3419   -0.5155    3.8297 C.3       1 <0>        -0.0776
      9 C8         -3.6526   -1.7155    4.7294 C.3       1 <0>        -0.1660
     10 C9         -2.9777   -1.5506    6.0642 C.2       1 <0>         0.3860
     11 O1         -3.5430   -1.9334    7.0689 O.2       1 <0>        -0.4630
     12 C10        -1.7045   -0.9623    6.1709 C.2       1 <0>        -0.2231
     13 C11        -1.1268   -0.3819    5.0986 C.2       1 <0>        -0.0248
     14 C12         0.2702    0.1878    5.1484 C.3       1 <0>         0.0934
     15 O2          0.9175   -0.1495    3.9210 O.3       1 <0>        -0.3647
     16 C13         0.2914    0.2897    2.7265 C.3       1 <0>         0.1355
     17 H2          0.4718    1.3574    2.6023 H         1 <0>         0.0871
     18 C14         0.8916   -0.4446    1.5354 C.3       1 <0>        -0.0776
     19 H3          0.7637   -1.5226    1.6334 H         1 <0>         0.0889
     20 C15         2.3555   -0.0838    1.2474 C.3       1 <0>        -0.1087
     21 C16         2.5139   -0.4327   -0.2563 C.3       1 <0>        -0.1459
     22 C17         1.0947   -0.3716   -0.8712 C.3       1 <0>         0.2582
     23 C18         0.6897   -1.7031   -1.3507 C.1       1 <0>        -0.1620
     24 C19         0.3666   -2.7650   -1.7331 C.1       1 <0>        -0.1212
     25 C20        -0.0274   -4.0604   -2.1995 C.ar      1 <0>        -0.0367
     26 C21        -1.1200   -4.7210   -1.6262 C.ar      1 <0>        -0.0530
     27 C22        -1.4601   -5.9707   -2.1134 C.ar      1 <0>        -0.1687
     28 C23        -0.7166   -6.5219   -3.1415 C.ar      1 <0>         0.1068
     29 N1          0.3085   -5.8759   -3.6626 N.ar      1 <0>        -0.4805
     30 C24         0.6677   -4.6824   -3.2367 C.ar      1 <0>         0.1251
     31 O3          1.0606    0.5725   -1.9434 O.3       1 <0>        -0.5346
     32 C25        -2.2215    1.6076    1.1190 C.ar      1 <0>        -0.1177
     33 C26        -2.6191    1.9888   -0.1494 C.ar      1 <0>        -0.0629
     34 C27        -2.8354    3.3225   -0.4354 C.ar      1 <0>        -0.1918
     35 C28        -2.6532    4.2815    0.5529 C.ar      1 <0>         0.2148
     36 C29        -2.2538    3.8951    1.8260 C.ar      1 <0>        -0.1956
     37 C30        -2.0446    2.5592    2.1067 C.ar      1 <0>        -0.0760
     38 N2         -2.8706    5.6313    0.2670 N.pl3     1 <0>        -0.6385
     39 C31        -3.4028    6.0268   -1.0393 C.3       1 <0>         0.0924
     40 C32        -2.5666    6.6514    1.2735 C.3       1 <0>         0.0886
     41 H4          1.1112    2.0220    0.1572 H         1 <0>         0.0513
     42 H5         -0.5418    1.9645   -0.5005 H         1 <0>         0.0767
     43 H6         -0.2831    1.9356    1.2603 H         1 <0>         0.0824
     44 H7         -1.7219   -0.2618   -0.6824 H         1 <0>         0.0801
     45 H8         -1.1819   -1.5764    0.3981 H         1 <0>         0.0696
     46 H9         -3.8503    0.3695    4.2123 H         1 <0>         0.0851
     47 H10        -3.6793   -0.7230    2.8142 H         1 <0>         0.0936
     48 H11        -4.7303   -1.7878    4.8759 H         1 <0>         0.0973
     49 H12        -3.2928   -2.6273    4.2527 H         1 <0>         0.1003
     50 H13        -1.1858   -0.9750    7.1181 H         1 <0>         0.1397
     51 H14         0.2242    1.2714    5.2567 H         1 <0>         0.0766
     52 H15         0.8168   -0.2455    5.9860 H         1 <0>         0.1185
     53 H16         2.5309    0.9786    1.4169 H         1 <0>         0.0765
     54 H17         3.0281   -0.6882    1.8560 H         1 <0>         0.0773
     55 H18         3.1639    0.2948   -0.7426 H         1 <0>         0.0853
     56 H19         2.9263   -1.4357   -0.3662 H         1 <0>         0.0750
     57 H20        -1.6830   -4.2673   -0.8240 H         1 <0>         0.1381
     58 H21        -2.2970   -6.5102   -1.6951 H         1 <0>         0.1426
     59 H22        -0.9796   -7.4973   -3.5234 H         1 <0>         0.1614
     60 H23         1.5102   -4.1827   -3.6918 H         1 <0>         0.1596
     61 H24         1.6240    0.3367   -2.6931 H         1 <0>         0.3802
     62 H25        -2.7602    1.2427   -0.9174 H         1 <0>         0.1220
     63 H26        -3.1455    3.6195   -1.4263 H         1 <0>         0.1220
     64 H27        -2.1108    4.6383    2.5966 H         1 <0>         0.1219
     65 H28        -1.7384    2.2577    3.0975 H         1 <0>         0.1169
     66 H29        -4.4917    6.0484   -0.9967 H         1 <0>         0.0481
     67 H30        -3.0296    7.0175   -1.2988 H         1 <0>         0.0660
     68 H31        -3.0829    5.3088   -1.7945 H         1 <0>         0.0696
     69 H32        -2.2695    6.1669    2.2037 H         1 <0>         0.0774
     70 H33        -1.7528    7.2827    0.9167 H         1 <0>         0.0526
     71 H34        -3.4512    7.2636    1.4492 H         1 <0>         0.0554
@<TRIPOS>BOND
     1    1    2 1
     2    1   41 1
     3    1   42 1
     4    1   43 1
     5    2   18 1
     6    2   22 1
     7    2    3 1
     8    3    4 1
     9    3   44 1
    10    3   45 1
    11    4    5 1
    12    4    6 1
    13    4   32 1
    14    6   16 1
    15    6    7 2
    16    7   13 1
    17    7    8 1
    18    8    9 1
    19    8   46 1
    20    8   47 1
    21    9   10 1
    22    9   48 1
    23    9   49 1
    24   10   11 2
    25   10   12 1
    26   12   13 2
    27   12   50 1
    28   13   14 1
    29   14   15 1
    30   14   51 1
    31   14   52 1
    32   15   16 1
    33   16   17 1
    34   16   18 1
    35   18   19 1
    36   18   20 1
    37   20   21 1
    38   20   53 1
    39   20   54 1
    40   21   22 1
    41   21   55 1
    42   21   56 1
    43   22   23 1
    44   22   31 1
    45   23   24 3
    46   24   25 1
    47   25   30 ar
    48   25   26 ar
    49   26   27 ar
    50   26   57 1
    51   27   28 ar
    52   27   58 1
    53   28   29 ar
    54   28   59 1
    55   29   30 ar
    56   30   60 1
    57   31   61 1
    58   32   37 ar
    59   32   33 ar
    60   33   34 ar
    61   33   62 1
    62   34   35 ar
    63   34   63 1
    64   35   36 ar
    65   35   38 1
    66   36   37 ar
    67   36   64 1
    68   37   65 1
    69   38   39 1
    70   38   40 1
    71   39   66 1
    72   39   67 1
    73   39   68 1
    74   40   69 1
    75   40   70 1
    76   40   71 1
@<TRIPOS>MOLECULE
CHEMBL569044
   55    59     0     0     0
SMALL
USER_CHARGES

@<TRIPOS>ATOM
      1 C1          1.1471    2.0594   -0.7546 C.3       1 <0>        -0.1852
      2 C2          0.6357    0.7339   -0.1869 C.3       1 <0>        -0.0323
      3 C3         -0.8617    0.8921    0.1192 C.3       1 <0>         0.0093
      4 N1         -1.2901    0.7076    1.5118 N.pl3     1 <0>        -0.3935
      5 C4         -2.4956    0.8090    2.1106 C.cat     1 <0>         0.2794
      6 N2         -2.3695    0.5624    3.3852 N.pl3     1 <0>        -0.4643
      7 C5         -1.0824    0.2873    3.6663 C.2       1 <0>         0.0849
      8 C6         -0.3727    0.3697    2.4769 C.2       1 <0>         0.1100
      9 C7          1.0428    0.1594    2.1698 C.2       1 <0>        -0.1397
     10 C8          1.5414    0.3319    0.9572 C.2       1 <0>        -0.0225
     11 C9          3.0021    0.0830    0.6713 C.3       1 <0>        -0.0897
     12 C10         3.1021   -0.9293   -0.4765 C.3       1 <0>        -0.1200
     13 C11         2.2740   -0.4361   -1.6641 C.3       1 <0>        -0.1183
     14 C12         0.7995   -0.3338   -1.2692 C.3       1 <0>        -0.0900
     15 H1          0.4583   -1.2954   -0.8857 H         1 <0>         0.0881
     16 C13        -0.0315    0.0506   -2.4950 C.3       1 <0>         0.1903
     17 C14        -0.0193   -1.1018   -3.5013 C.3       1 <0>        -0.1486
     18 C15        -1.4500    0.3330   -2.0718 C.2       1 <0>        -0.1319
     19 C16        -1.9642    1.6135   -2.1518 C.2       1 <0>        -0.1827
     20 C17        -3.2440    1.8335   -1.7631 C.2       1 <0>        -0.1489
     21 S1         -3.7642    0.2003   -1.2638 S.3       1 <0>         0.0624
     22 C18        -2.2426   -0.6661   -1.6123 C.2       1 <0>        -0.1939
     23 O1          0.5261    1.2183   -3.1013 O.3       1 <0>        -0.5406
     24 C19        -0.5264   -0.0421    4.9988 C.ar      1 <0>        -0.0736
     25 C20         0.6560    0.5583    5.4316 C.ar      1 <0>        -0.0513
     26 C21         1.1698    0.2481    6.6736 C.ar      1 <0>        -0.1473
     27 C22         0.5137   -0.6586    7.4907 C.ar      1 <0>         0.1361
     28 C23        -0.6609   -1.2581    7.0652 C.ar      1 <0>        -0.1473
     29 C24        -1.1864   -0.9495    5.8277 C.ar      1 <0>        -0.0643
     30 F1          1.0212   -0.9595    8.7061 F         1 <0>        -0.1231
     31 H2          1.6329    1.8806   -1.7138 H         1 <0>         0.1167
     32 H3          0.3092    2.7426   -0.8935 H         1 <0>         0.0607
     33 H4          1.8636    2.4995   -0.0609 H         1 <0>         0.0712
     34 H5         -1.1630    1.8918   -0.1936 H         1 <0>         0.1175
     35 H6         -1.4061    0.1755   -0.4958 H         1 <0>         0.1776
     36 H7         -3.4210    1.0564    1.6117 H         1 <0>         0.2535
     37 H8          1.7097   -0.1281    2.9690 H         1 <0>         0.1524
     38 H9          3.4839    1.0166    0.3808 H         1 <0>         0.0943
     39 H10         3.4871   -0.3203    1.5602 H         1 <0>         0.0877
     40 H11         4.1440   -1.0344   -0.7787 H         1 <0>         0.0831
     41 H12         2.7210   -1.8948   -0.1437 H         1 <0>         0.0685
     42 H13         2.6344    0.5449   -1.9736 H         1 <0>         0.0864
     43 H14         2.3786   -1.1359   -2.4932 H         1 <0>         0.0815
     44 H15        -0.3436   -2.0182   -3.0082 H         1 <0>         0.0730
     45 H16        -0.6964   -0.8728   -4.3242 H         1 <0>         0.0717
     46 H17         0.9909   -1.2355   -3.8884 H         1 <0>         0.0805
     47 H18        -1.3553    2.4267   -2.5183 H         1 <0>         0.1502
     48 H19        -3.8037    2.7571   -1.7568 H         1 <0>         0.2016
     49 H20        -2.0128   -1.7140   -1.4881 H         1 <0>         0.1991
     50 H21         0.1252    2.0461   -2.8027 H         1 <0>         0.3756
     51 H22         1.1684    1.2645    4.7952 H         1 <0>         0.1425
     52 H23         2.0852    0.7124    7.0096 H         1 <0>         0.1517
     53 H24        -1.1681   -1.9646    7.7054 H         1 <0>         0.1505
     54 H25        -2.1045   -1.4137    5.4989 H         1 <0>         0.1372
     55 H26        -3.0926    0.5757    4.0316 H         1 <0>         0.4639
@<TRIPOS>BOND
     1    1    2 1
     2    1   31 1
     3    1   32 1
     4    1   33 1
     5    2   10 1
     6    2   14 1
     7    2    3 1
     8    3    4 1
     9    3   34 1
    10    3   35 1
    11    4    8 1
    12    4    5 1
    13    5    6 2
    14    5   36 1
    15    6    7 1
    16    6   55 1
    17    7    8 2
    18    7   24 1
    19    8    9 1
    20    9   10 2
    21    9   37 1
    22   10   11 1
    23   11   12 1
    24   11   38 1
    25   11   39 1
    26   12   13 1
    27   12   40 1
    28   12   41 1
    29   13   14 1
    30   13   42 1
    31   13   43 1
    32   14   15 1
    33   14   16 1
    34   16   17 1
    35   16   18 1
    36   16   23 1
    37   17   44 1
    38   17   45 1
    39   17   46 1
    40   18   22 2
    41   18   19 1
    42   19   20 2
    43   19   47 1
    44   20   21 1
    45   20   48 1
    46   21   22 1
    47   22   49 1
    48   23   50 1
    49   24   29 ar
    50   24   25 ar
    51   25   26 ar
    52   25   51 1
    53   26   27 ar
    54   26   52 1
    55   27   28 ar
    56   27   30 1
    57   28   29 ar
    58   28   53 1
    59   29   54 1
@<TRIPOS>MOLECULE
CHEMBL569044__1
   54    58     0     0     0
SMALL
USER_CHARGES

@<TRIPOS>ATOM
      1 C1          1.1471    2.0594   -0.7546 C.3       1 <0>        -0.1786
      2 C2          0.6357    0.7339   -0.1869 C.3       1 <0>        -0.0178
      3 C3         -0.8617    0.8921    0.1192 C.3       1 <0>         0.0262
      4 N1         -1.2901    0.7076    1.5118 N.pl3     1 <0>        -0.4387
      5 C4         -2.4956    0.8090    2.1106 C.2       1 <0>         0.1964
      6 N2         -2.3695    0.5624    3.3852 N.2       1 <0>        -0.4731
      7 C5         -1.0824    0.2873    3.6663 C.2       1 <0>         0.0524
      8 C6         -0.3727    0.3697    2.4769 C.2       1 <0>         0.0196
      9 C7          1.0428    0.1594    2.1698 C.2       1 <0>        -0.0900
     10 C8          1.5414    0.3319    0.9572 C.2       1 <0>        -0.0956
     11 C9          3.0021    0.0830    0.6713 C.3       1 <0>        -0.0775
     12 C10         3.1021   -0.9293   -0.4765 C.3       1 <0>        -0.1175
     13 C11         2.2740   -0.4361   -1.6641 C.3       1 <0>        -0.1129
     14 C12         0.7995   -0.3338   -1.2692 C.3       1 <0>        -0.0878
     15 H1          0.4583   -1.2954   -0.8857 H         1 <0>         0.0817
     16 C13        -0.0315    0.0506   -2.4950 C.3       1 <0>         0.1915
     17 C14        -0.0193   -1.1018   -3.5013 C.3       1 <0>        -0.1446
     18 C15        -1.4500    0.3330   -2.0718 C.2       1 <0>        -0.1268
     19 C16        -1.9642    1.6135   -2.1518 C.2       1 <0>        -0.1762
     20 C17        -3.2440    1.8335   -1.7631 C.2       1 <0>        -0.1577
     21 S1         -3.7642    0.2003   -1.2638 S.3       1 <0>         0.0715
     22 C18        -2.2426   -0.6661   -1.6123 C.2       1 <0>        -0.1909
     23 O1          0.5261    1.2183   -3.1013 O.3       1 <0>        -0.5469
     24 C19        -0.5264   -0.0421    4.9988 C.ar      1 <0>        -0.0050
     25 C20         0.5228   -0.9542    5.1133 C.ar      1 <0>        -0.0835
     26 C21         1.0372   -1.2577    6.3568 C.ar      1 <0>        -0.1510
     27 C22         0.5131   -0.6586    7.4910 C.ar      1 <0>         0.0954
     28 C23        -0.5295    0.2477    7.3826 C.ar      1 <0>        -0.1514
     29 C24        -1.0464    0.5629    6.1431 C.ar      1 <0>        -0.0662
     30 F1          1.0200   -0.9595    8.7066 F         1 <0>        -0.1401
     31 H2          1.6329    1.8806   -1.7138 H         1 <0>         0.1053
     32 H3          0.3092    2.7426   -0.8935 H         1 <0>         0.0530
     33 H4          1.8636    2.4995   -0.0609 H         1 <0>         0.0623
     34 H5         -1.1630    1.8918   -0.1936 H         1 <0>         0.0872
     35 H6         -1.4061    0.1755   -0.4958 H         1 <0>         0.1515
     36 H7         -3.4210    1.0564    1.6117 H         1 <0>         0.2019
     37 H8          1.7097   -0.1281    2.9690 H         1 <0>         0.1305
     38 H9          3.4839    1.0166    0.3808 H         1 <0>         0.0791
     39 H10         3.4871   -0.3203    1.5602 H         1 <0>         0.0757
     40 H11         4.1440   -1.0344   -0.7787 H         1 <0>         0.0714
     41 H12         2.7210   -1.8948   -0.1437 H         1 <0>         0.0639
     42 H13         2.6344    0.5449   -1.9736 H         1 <0>         0.0806
     43 H14         2.3786   -1.1359   -2.4932 H         1 <0>         0.0709
     44 H15        -0.3436   -2.0182   -3.0082 H         1 <0>         0.0707
     45 H16        -0.6964   -0.8728   -4.3242 H         1 <0>         0.0668
     46 H17         0.9909   -1.2355   -3.8884 H         1 <0>         0.0750
     47 H18        -1.3553    2.4267   -2.5183 H         1 <0>         0.1422
     48 H19        -3.8037    2.7571   -1.7568 H         1 <0>         0.1949
     49 H20        -2.0128   -1.7140   -1.4881 H         1 <0>         0.1927
     50 H21         0.1252    2.0461   -2.8027 H         1 <0>         0.3754
     51 H22         0.9315   -1.4222    4.2299 H         1 <0>         0.1329
     52 H23         1.8495   -1.9637    6.4464 H         1 <0>         0.1371
     53 H24        -0.9351    0.7114    8.2697 H         1 <0>         0.1373
     54 H25        -1.8558    1.2730    6.0592 H         1 <0>         0.1367
@<TRIPOS>BOND
     1    1    2 1
     2    1   31 1
     3    1   32 1
     4    1   33 1
     5    2   10 1
     6    2   14 1
     7    2    3 1
     8    3    4 1
     9    3   34 1
    10    3   35 1
    11    4    8 1
    12    4    5 1
    13    5    6 2
    14    5   36 1
    15    6    7 1
    16    7    8 2
    17    7   24 1
    18    8    9 1
    19    9   10 2
    20    9   37 1
    21   10   11 1
    22   11   12 1
    23   11   38 1
    24   11   39 1
    25   12   13 1
    26   12   40 1
    27   12   41 1
    28   13   14 1
    29   13   42 1
    30   13   43 1
    31   14   15 1
    32   14   16 1
    33   16   17 1
    34   16   18 1
    35   16   23 1
    36   17   44 1
    37   17   45 1
    38   17   46 1
    39   18   22 2
    40   18   19 1
    41   19   20 2
    42   19   47 1
    43   20   21 1
    44   20   48 1
    45   21   22 1
    46   22   49 1
    47   23   50 1
    48   24   29 ar
    49   24   25 ar
    50   25   26 ar
    51   25   51 1
    52   26   27 ar
    53   26   52 1
    54   27   28 ar
    55   27   30 1
    56   28   29 ar
    57   28   53 1
    58   29   54 1
@<TRIPOS>MOLECULE
CHEMBL250425
   73    78     0     0     0
SMALL
USER_CHARGES

@<TRIPOS>ATOM
      1 C1          0.9838    0.4069   -2.4996 C.3       1 <0>        -0.1382
      2 C2          0.7307   -1.0968   -2.6258 C.3       1 <0>        -0.0481
      3 C3         -0.5906   -1.4391   -1.9869 C.2       1 <0>         0.2920
      4 N1         -1.3556   -0.5602   -1.4366 N.2       1 <0>        -0.4981
      5 C4         -2.5339   -1.2685   -0.9350 C.3       1 <0>         0.0883
      6 C5         -2.6622   -1.1116    0.5912 C.3       1 <0>        -0.1023
      7 C6         -4.0827   -0.5348    0.8461 C.3       1 <0>        -0.1132
      8 C7         -4.8639   -0.9684   -0.4019 C.3       1 <0>        -0.0811
      9 H1         -5.1323   -2.0229   -0.3378 H         1 <0>         0.0796
     10 C8         -3.8233   -0.7364   -1.5317 C.3       1 <0>        -0.0314
     11 C9         -4.3401   -1.4508   -2.7676 C.3       1 <0>        -0.1008
     12 C10        -5.5982   -0.7016   -3.2331 C.3       1 <0>        -0.0160
     13 H2         -6.0803   -1.2709   -4.0279 H         1 <0>         0.0989
     14 C11        -6.5753   -0.5182   -2.0890 C.2       1 <0>        -0.0442
     15 C12        -7.8656   -0.7270   -2.3435 C.2       1 <0>        -0.1313
     16 C13        -8.3212   -1.1426   -3.7234 C.3       1 <0>        -0.0805
     17 C14        -9.3795   -2.2406   -3.5779 C.3       1 <0>        -0.1659
     18 C15       -10.4427   -1.8058   -2.6058 C.2       1 <0>         0.3872
     19 O1        -11.5973   -2.1274   -2.8029 O.2       1 <0>        -0.4712
     20 C16       -10.1257   -1.0351   -1.4737 C.2       1 <0>        -0.2483
     21 C17        -8.8815   -0.5367   -1.3087 C.2       1 <0>         0.0272
     22 C18        -8.4913    0.2337   -0.0712 C.3       1 <0>        -0.0956
     23 C19        -7.1169   -0.2662    0.3718 C.3       1 <0>        -0.1112
     24 C20        -6.0922   -0.1235   -0.7117 C.3       1 <0>        -0.0452
     25 H3         -5.8004    0.9264   -0.7388 H         1 <0>         0.0932
     26 C21        -5.2003    0.6512   -3.7647 C.ar      1 <0>        -0.1116
     27 C22        -4.0862    0.7738   -4.5747 C.ar      1 <0>        -0.0666
     28 C23        -3.7188    2.0120   -5.0636 C.ar      1 <0>        -0.1914
     29 C24        -4.4699    3.1352   -4.7408 C.ar      1 <0>         0.2123
     30 C25        -5.5885    3.0085   -3.9269 C.ar      1 <0>        -0.1906
     31 C26        -5.9535    1.7663   -3.4461 C.ar      1 <0>        -0.0747
     32 N2         -4.1009    4.3891   -5.2331 N.pl3     1 <0>        -0.6387
     33 C27        -2.9206    4.5209   -6.0909 C.3       1 <0>         0.0930
     34 C28        -4.8941    5.5725   -4.8917 C.3       1 <0>         0.0962
     35 C29        -3.6862    0.7615   -1.8117 C.3       1 <0>        -0.1447
     36 C30        -2.2872   -2.7091   -1.3069 C.2       1 <0>         0.0309
     37 C31        -3.0608   -3.7496   -1.0751 C.2       1 <0>        -0.2021
     38 O2         -1.0823   -2.6854   -1.9431 O.3       1 <0>        -0.2853
     39 H4          1.9395    0.6544   -2.9617 H         1 <0>         0.0659
     40 H5          0.1852    0.9531   -3.0015 H         1 <0>         0.0653
     41 H6          1.0071    0.6842   -1.4458 H         1 <0>         0.0645
     42 H7          0.7073   -1.3741   -3.6796 H         1 <0>         0.0971
     43 H8          1.5293   -1.6430   -2.1239 H         1 <0>         0.0970
     44 H9         -2.5580   -2.0812    1.0781 H         1 <0>         0.0712
     45 H10        -1.9048   -0.4213    0.9624 H         1 <0>         0.0786
     46 H11        -4.5197   -0.9706    1.7446 H         1 <0>         0.0716
     47 H12        -4.0492    0.5521    0.9211 H         1 <0>         0.0741
     48 H13        -3.5837   -1.4294   -3.5522 H         1 <0>         0.0679
     49 H14        -4.5921   -2.4824   -2.5218 H         1 <0>         0.0732
     50 H15        -8.7522   -0.2851   -4.2402 H         1 <0>         0.0810
     51 H16        -7.4720   -1.5254   -4.2894 H         1 <0>         0.0926
     52 H17        -9.8350   -2.4350   -4.5490 H         1 <0>         0.0941
     53 H18        -8.9068   -3.1525   -3.2130 H         1 <0>         0.0989
     54 H19       -10.8836   -0.8399   -0.7295 H         1 <0>         0.1344
     55 H20        -8.4416    1.2984   -0.2990 H         1 <0>         0.0886
     56 H21        -9.2210    0.0576    0.7192 H         1 <0>         0.0855
     57 H22        -6.7979    0.3005    1.2465 H         1 <0>         0.0785
     58 H23        -7.1920   -1.3197    0.6410 H         1 <0>         0.0672
     59 H24        -3.5025   -0.0998   -4.8249 H         1 <0>         0.1168
     60 H25        -2.8484    2.1071   -5.6958 H         1 <0>         0.1193
     61 H26        -6.1743    3.8797   -3.6738 H         1 <0>         0.1178
     62 H27        -6.8256    1.6665   -2.8169 H         1 <0>         0.1200
     63 H28        -3.2141    4.4002   -7.1337 H         1 <0>         0.0471
     64 H29        -2.4773    5.5067   -5.9500 H         1 <0>         0.0657
     65 H30        -2.1924    3.7540   -5.8273 H         1 <0>         0.0681
     66 H31        -4.9006    5.7058   -3.8099 H         1 <0>         0.0531
     67 H32        -4.4561    6.4520   -5.3636 H         1 <0>         0.0722
     68 H33        -5.9159    5.4401   -5.2476 H         1 <0>         0.0532
     69 H34        -3.1049    0.9093   -2.7219 H         1 <0>         0.0683
     70 H35        -4.6763    1.1997   -1.9378 H         1 <0>         0.0822
     71 H36        -3.1798    1.2427   -0.9750 H         1 <0>         0.0479
     72 H37        -4.0006   -3.6195   -0.5591 H         1 <0>         0.1347
     73 H38        -2.7553   -4.7329   -1.4011 H         1 <0>         0.1159
@<TRIPOS>BOND
     1    1    2 1
     2    1   39 1
     3    1   40 1
     4    1   41 1
     5    2    3 1
     6    2   42 1
     7    2   43 1
     8    3   38 1
     9    3    4 2
    10    4    5 1
    11    5   10 1
    12    5    6 1
    13    5   36 1
    14    6    7 1
    15    6   44 1
    16    6   45 1
    17    7    8 1
    18    7   46 1
    19    7   47 1
    20    8    9 1
    21    8   24 1
    22    8   10 1
    23   10   11 1
    24   10   35 1
    25   11   12 1
    26   11   48 1
    27   11   49 1
    28   12   13 1
    29   12   14 1
    30   12   26 1
    31   14   24 1
    32   14   15 2
    33   15   21 1
    34   15   16 1
    35   16   17 1
    36   16   50 1
    37   16   51 1
    38   17   18 1
    39   17   52 1
    40   17   53 1
    41   18   19 2
    42   18   20 1
    43   20   21 2
    44   20   54 1
    45   21   22 1
    46   22   23 1
    47   22   55 1
    48   22   56 1
    49   23   24 1
    50   23   57 1
    51   23   58 1
    52   24   25 1
    53   26   31 ar
    54   26   27 ar
    55   27   28 ar
    56   27   59 1
    57   28   29 ar
    58   28   60 1
    59   29   30 ar
    60   29   32 1
    61   30   31 ar
    62   30   61 1
    63   31   62 1
    64   32   33 1
    65   32   34 1
    66   33   63 1
    67   33   64 1
    68   33   65 1
    69   34   66 1
    70   34   67 1
    71   34   68 1
    72   35   69 1
    73   35   70 1
    74   35   71 1
    75   36   37 2
    76   36   38 1
    77   37   72 1
    78   37   73 1
@<TRIPOS>MOLECULE
CHEMBL195967
   55    59     0     0     0
SMALL
USER_CHARGES

@<TRIPOS>ATOM
      1 C1         -1.0283    1.6945   -0.5930 C.3       1 <0>        -0.1448
      2 C2         -0.6088    0.2324   -0.4277 C.3       1 <0>         0.0776
      3 H1         -0.1211   -0.1127   -1.3394 H         1 <0>         0.0646
      4 C3         -1.8461   -0.6283   -0.1503 C.3       1 <0>        -0.1729
      5 C4         -1.3974   -2.0638    0.1439 C.3       1 <0>         0.1086
      6 O1         -0.4456   -2.0428    1.2130 O.3       1 <0>        -0.3657
      7 C5          0.6933   -1.2255    0.9538 C.3       1 <0>         0.2860
      8 O2          0.2973    0.1154    0.6744 O.3       1 <0>        -0.3686
      9 C6          1.4789   -1.7934   -0.2461 C.3       1 <0>        -0.1814
     10 C7          2.9652   -1.5971    0.1568 C.3       1 <0>        -0.0918
     11 C8          2.9453   -1.8662    1.6473 C.2       1 <0>        -0.0673
     12 C9          3.8650   -2.4745    2.3907 C.2       1 <0>        -0.1030
     13 C10         3.4952   -2.6440    3.8118 C.2       1 <0>         0.1145
     14 C11         2.1823   -2.4667    4.2336 C.2       1 <0>        -0.2228
     15 C12         2.1505   -2.6912    5.5982 C.2       1 <0>         0.0700
     16 N1          3.3627   -3.0013    6.0005 N.2       1 <0>        -0.2921
     17 N2          4.2264   -2.9896    4.8918 N.pl3     1 <0>        -0.3088
     18 C13         5.5964   -3.2836    4.9055 C.ar      1 <0>         0.1458
     19 C14         6.1801   -3.9277    3.8226 C.ar      1 <0>        -0.1034
     20 C15         7.5304   -4.2165    3.8380 C.ar      1 <0>        -0.1307
     21 C16         8.3024   -3.8642    4.9324 C.ar      1 <0>         0.0988
     22 C17         7.7221   -3.2218    6.0134 C.ar      1 <0>        -0.1325
     23 C18         6.3733   -2.9261    5.9995 C.ar      1 <0>        -0.0803
     24 F1          9.6231   -4.1481    4.9458 F         1 <0>        -0.1331
     25 C19         1.0671   -2.1023    3.2853 C.3       1 <0>        -0.0185
     26 C20         1.6511   -1.2562    2.1515 C.3       1 <0>        -0.0069
     27 C21         1.9081    0.1688    2.6458 C.3       1 <0>        -0.1207
     28 C22        -0.7509   -2.6647   -1.1059 C.3       1 <0>        -0.1958
     29 C23        -2.6081   -2.9055    0.5522 C.3       1 <0>        -0.1378
     30 H2         -0.1468    2.3058   -0.7863 H         1 <0>         0.0652
     31 H3         -1.7213    1.7812   -1.4300 H         1 <0>         0.0722
     32 H4         -1.5158    2.0380    0.3194 H         1 <0>         0.0655
     33 H5         -2.3822   -0.2298    0.7111 H         1 <0>         0.0828
     34 H6         -2.4986   -0.6215   -1.0233 H         1 <0>         0.0835
     35 H7          1.2561   -2.8516   -0.3831 H         1 <0>         0.0989
     36 H8          1.2509   -1.2329   -1.1526 H         1 <0>         0.0865
     37 H9          3.6031   -2.3163   -0.3571 H         1 <0>         0.0820
     38 H10         3.2893   -0.5766   -0.0473 H         1 <0>         0.0915
     39 H11         4.8067   -2.8175    1.9883 H         1 <0>         0.1429
     40 H12         1.2758   -2.6225    6.2279 H         1 <0>         0.1896
     41 H13         5.5783   -4.2029    2.9690 H         1 <0>         0.1424
     42 H14         7.9846   -4.7178    2.9961 H         1 <0>         0.1476
     43 H15         8.3258   -2.9482    6.8662 H         1 <0>         0.1471
     44 H16         5.9220   -2.4211    6.8407 H         1 <0>         0.1452
     45 H17         0.6244   -3.0097    2.8746 H         1 <0>         0.0871
     46 H18         0.3075   -1.5287    3.8165 H         1 <0>         0.0822
     47 H19         0.9653    0.6235    2.9497 H         1 <0>         0.0697
     48 H20         2.5890    0.1410    3.4965 H         1 <0>         0.0564
     49 H21         2.3532    0.7570    1.8433 H         1 <0>         0.0614
     50 H22        -0.0916   -1.9275   -1.5641 H         1 <0>         0.0723
     51 H23        -0.1728   -3.5460   -0.8279 H         1 <0>         0.0720
     52 H24        -1.5275   -2.9488   -1.8159 H         1 <0>         0.0663
     53 H25        -3.3362   -2.9123   -0.2589 H         1 <0>         0.0718
     54 H26        -2.2873   -3.9261    0.7610 H         1 <0>         0.0658
     55 H27        -3.0633   -2.4778    1.4455 H         1 <0>         0.0654
@<TRIPOS>BOND
     1    1    2 1
     2    1   30 1
     3    1   31 1
     4    1   32 1
     5    2    3 1
     6    2    8 1
     7    2    4 1
     8    4    5 1
     9    4   33 1
    10    4   34 1
    11    5    6 1
    12    5   28 1
    13    5   29 1
    14    6    7 1
    15    7   26 1
    16    7    8 1
    17    7    9 1
    18    9   10 1
    19    9   35 1
    20    9   36 1
    21   10   11 1
    22   10   37 1
    23   10   38 1
    24   11   26 1
    25   11   12 2
    26   12   13 1
    27   12   39 1
    28   13   17 1
    29   13   14 2
    30   14   15 1
    31   14   25 1
    32   15   16 2
    33   15   40 1
    34   16   17 1
    35   17   18 1
    36   18   23 ar
    37   18   19 ar
    38   19   20 ar
    39   19   41 1
    40   20   21 ar
    41   20   42 1
    42   21   22 ar
    43   21   24 1
    44   22   23 ar
    45   22   43 1
    46   23   44 1
    47   25   26 1
    48   25   45 1
    49   25   46 1
    50   26   27 1
    51   27   47 1
    52   27   48 1
    53   27   49 1
    54   28   50 1
    55   28   51 1
    56   28   52 1
    57   29   53 1
    58   29   54 1
    59   29   55 1
@<TRIPOS>MOLECULE
CHEMBL429618
   71    76     0     0     0
SMALL
USER_CHARGES

@<TRIPOS>ATOM
      1 C1          0.1113    1.6111    0.2974 C.3       1 <0>        -0.1530
      2 C2          0.1783    0.0830    0.2624 C.3       1 <0>        -0.0364
      3 C3         -1.2257   -0.4962    0.2593 C.3       1 <0>        -0.0994
      4 C4         -1.9864    0.1513    1.4273 C.3       1 <0>        -0.0098
      5 H1         -2.9472   -0.3486    1.5504 H         1 <0>         0.0997
      6 C5         -1.1978    0.0370    2.7131 C.2       1 <0>        -0.0896
      7 C6         -1.8514   -0.2821    3.8295 C.2       1 <0>        -0.1176
      8 C7         -3.3419   -0.5155    3.8297 C.3       1 <0>        -0.0776
      9 C8         -3.6526   -1.7155    4.7294 C.3       1 <0>        -0.1660
     10 C9         -2.9777   -1.5506    6.0642 C.2       1 <0>         0.3861
     11 O1         -3.5430   -1.9334    7.0689 O.2       1 <0>        -0.4635
     12 C10        -1.7045   -0.9623    6.1709 C.2       1 <0>        -0.2236
     13 C11        -1.1268   -0.3819    5.0986 C.2       1 <0>        -0.0243
     14 C12         0.2702    0.1878    5.1484 C.3       1 <0>         0.0933
     15 O2          0.9175   -0.1495    3.9210 O.3       1 <0>        -0.3645
     16 C13         0.2914    0.2897    2.7265 C.3       1 <0>         0.1355
     17 H2          0.4718    1.3574    2.6023 H         1 <0>         0.0873
     18 C14         0.8916   -0.4446    1.5354 C.3       1 <0>        -0.0780
     19 H3          0.7637   -1.5226    1.6334 H         1 <0>         0.0896
     20 C15         2.3555   -0.0838    1.2474 C.3       1 <0>        -0.1084
     21 C16         2.5139   -0.4327   -0.2563 C.3       1 <0>        -0.1458
     22 C17         1.0947   -0.3716   -0.8712 C.3       1 <0>         0.2580
     23 C18         0.6897   -1.7031   -1.3507 C.1       1 <0>        -0.1426
     24 C19         0.3666   -2.7650   -1.7331 C.1       1 <0>        -0.1156
     25 C20        -0.0274   -4.0604   -2.1995 C.ar      1 <0>         0.2284
     26 C21        -1.1193   -4.7038   -1.6157 C.ar      1 <0>        -0.1460
     27 C22        -1.4878   -5.9547   -2.0778 C.ar      1 <0>        -0.0716
     28 C23        -0.7531   -6.5234   -3.1092 C.ar      1 <0>        -0.1658
     29 C24         0.3180   -5.8301   -3.6421 C.ar      1 <0>         0.1060
     30 N1          0.6458   -4.6377   -3.1880 N.ar      1 <0>        -0.4704
     31 O3          1.0606    0.5725   -1.9434 O.3       1 <0>        -0.5340
     32 C25        -2.2215    1.6076    1.1190 C.ar      1 <0>        -0.1176
     33 C26        -2.6191    1.9888   -0.1494 C.ar      1 <0>        -0.0628
     34 C27        -2.8354    3.3225   -0.4354 C.ar      1 <0>        -0.1917
     35 C28        -2.6532    4.2815    0.5529 C.ar      1 <0>         0.2147
     36 C29        -2.2538    3.8951    1.8260 C.ar      1 <0>        -0.1956
     37 C30        -2.0446    2.5592    2.1067 C.ar      1 <0>        -0.0760
     38 N2         -2.8706    5.6313    0.2670 N.pl3     1 <0>        -0.6386
     39 C31        -3.4028    6.0268   -1.0393 C.3       1 <0>         0.0924
     40 C32        -2.5666    6.6514    1.2735 C.3       1 <0>         0.0886
     41 H4          1.1112    2.0220    0.1572 H         1 <0>         0.0516
     42 H5         -0.5418    1.9645   -0.5005 H         1 <0>         0.0767
     43 H6         -0.2831    1.9356    1.2603 H         1 <0>         0.0823
     44 H7         -1.7219   -0.2618   -0.6824 H         1 <0>         0.0805
     45 H8         -1.1819   -1.5764    0.3981 H         1 <0>         0.0703
     46 H9         -3.8503    0.3695    4.2123 H         1 <0>         0.0850
     47 H10        -3.6793   -0.7230    2.8142 H         1 <0>         0.0937
     48 H11        -4.7303   -1.7878    4.8759 H         1 <0>         0.0972
     49 H12        -3.2928   -2.6273    4.2527 H         1 <0>         0.1004
     50 H13        -1.1858   -0.9750    7.1181 H         1 <0>         0.1396
     51 H14         0.2242    1.2714    5.2567 H         1 <0>         0.0766
     52 H15         0.8168   -0.2455    5.9860 H         1 <0>         0.1184
     53 H16         2.5309    0.9786    1.4169 H         1 <0>         0.0767
     54 H17         3.0281   -0.6882    1.8560 H         1 <0>         0.0776
     55 H18         3.1639    0.2948   -0.7426 H         1 <0>         0.0860
     56 H19         2.9263   -1.4357   -0.3662 H         1 <0>         0.0754
     57 H20        -1.6688   -4.2322   -0.8144 H         1 <0>         0.1387
     58 H21        -2.3282   -6.4773   -1.6455 H         1 <0>         0.1419
     59 H22        -1.0154   -7.4987   -3.4917 H         1 <0>         0.1411
     60 H23         0.8911   -6.2704   -4.4446 H         1 <0>         0.1632
     61 H24         1.6240    0.3367   -2.6931 H         1 <0>         0.3817
     62 H25        -2.7602    1.2427   -0.9174 H         1 <0>         0.1222
     63 H26        -3.1455    3.6195   -1.4263 H         1 <0>         0.1220
     64 H27        -2.1108    4.6383    2.5966 H         1 <0>         0.1218
     65 H28        -1.7384    2.2577    3.0975 H         1 <0>         0.1170
     66 H29        -4.4917    6.0484   -0.9967 H         1 <0>         0.0479
     67 H30        -3.0296    7.0175   -1.2988 H         1 <0>         0.0659
     68 H31        -3.0829    5.3088   -1.7945 H         1 <0>         0.0696
     69 H32        -2.2695    6.1669    2.2037 H         1 <0>         0.0774
     70 H33        -1.7528    7.2827    0.9167 H         1 <0>         0.0525
     71 H34        -3.4512    7.2636    1.4492 H         1 <0>         0.0552
@<TRIPOS>BOND
     1    1    2 1
     2    1   41 1
     3    1   42 1
     4    1   43 1
     5    2   18 1
     6    2   22 1
     7    2    3 1
     8    3    4 1
     9    3   44 1
    10    3   45 1
    11    4    5 1
    12    4    6 1
    13    4   32 1
    14    6   16 1
    15    6    7 2
    16    7   13 1
    17    7    8 1
    18    8    9 1
    19    8   46 1
    20    8   47 1
    21    9   10 1
    22    9   48 1
    23    9   49 1
    24   10   11 2
    25   10   12 1
    26   12   13 2
    27   12   50 1
    28   13   14 1
    29   14   15 1
    30   14   51 1
    31   14   52 1
    32   15   16 1
    33   16   17 1
    34   16   18 1
    35   18   19 1
    36   18   20 1
    37   20   21 1
    38   20   53 1
    39   20   54 1
    40   21   22 1
    41   21   55 1
    42   21   56 1
    43   22   23 1
    44   22   31 1
    45   23   24 3
    46   24   25 1
    47   25   30 ar
    48   25   26 ar
    49   26   27 ar
    50   26   57 1
    51   27   28 ar
    52   27   58 1
    53   28   29 ar
    54   28   59 1
    55   29   30 ar
    56   29   60 1
    57   31   61 1
    58   32   37 ar
    59   32   33 ar
    60   33   34 ar
    61   33   62 1
    62   34   35 ar
    63   34   63 1
    64   35   36 ar
    65   35   38 1
    66   36   37 ar
    67   36   64 1
    68   37   65 1
    69   38   39 1
    70   38   40 1
    71   39   66 1
    72   39   67 1
    73   39   68 1
    74   40   69 1
    75   40   70 1
    76   40   71 1
@<TRIPOS>MOLECULE
CHEMBL190225
   67    70     0     0     0
SMALL
USER_CHARGES

@<TRIPOS>ATOM
      1 C1         -1.8253    2.6946    0.6116 C.3       1 <0>        -0.0745
      2 C2         -1.7872    1.2155    0.3256 C.ar      1 <0>        -0.1523
      3 C3         -2.0789    0.7455   -0.9473 C.ar      1 <0>         0.2845
      4 C4         -2.0429   -0.6189   -1.2076 C.ar      1 <0>        -0.2569
      5 C5         -1.7171   -1.5075   -0.2009 C.ar      1 <0>        -0.0726
      6 C6         -1.4268   -1.0432    1.0672 C.ar      1 <0>        -0.2164
      7 C7         -1.4549    0.3209    1.3329 C.ar      1 <0>         0.1908
      8 N1         -1.1547    0.7901    2.6136 N.pl3     1 <0>        -0.6513
      9 C8          0.2267    1.1293    2.9643 C.3       1 <0>         0.1867
     10 C9          0.4839    2.5798    2.6465 C.ar      1 <0>        -0.0945
     11 C10         0.9511    2.9412    1.3967 C.ar      1 <0>        -0.0808
     12 C11         1.1871    4.2717    1.1052 C.ar      1 <0>        -0.1242
     13 C12         0.9554    5.2408    2.0634 C.ar      1 <0>        -0.1256
     14 C13         0.4874    4.8795    3.3129 C.ar      1 <0>        -0.1311
     15 C14         0.2474    3.5494    3.6030 C.ar      1 <0>        -0.1095
     16 C15        -2.2211    0.9430    3.6064 C.3       1 <0>         0.1909
     17 C16        -2.3703   -0.3387    4.3848 C.ar      1 <0>        -0.1293
     18 C17        -3.2354   -1.3206    3.9383 C.ar      1 <0>        -0.0562
     19 C18        -3.3741   -2.4964    4.6499 C.ar      1 <0>        -0.1911
     20 C19        -2.6440   -2.6918    5.8136 C.ar      1 <0>         0.1175
     21 C20        -1.7762   -1.7050    6.2593 C.ar      1 <0>        -0.1556
     22 C21        -1.6377   -0.5331    5.5413 C.ar      1 <0>        -0.0763
     23 O1         -2.7789   -3.8473    6.5157 O.3       1 <0>        -0.2591
     24 C22        -3.6351   -4.7888    6.0370 C.ar      1 <0>         0.0244
     25 C23        -3.1775   -5.7599    5.1583 C.ar      1 <0>        -0.0819
     26 C24        -4.0473   -6.7163    4.6721 C.ar      1 <0>        -0.1474
     27 C25        -5.3783   -6.7058    5.0623 C.ar      1 <0>         0.1454
     28 C26        -5.8359   -5.7349    5.9409 C.ar      1 <0>        -0.2063
     29 C27        -4.9650   -4.7819    6.4317 C.ar      1 <0>        -0.0811
     30 O2         -6.2347   -7.6471    4.5832 O.3       1 <0>        -0.2780
     31 C28        -7.5911   -7.5763    5.0272 C.3       1 <0>        -0.0086
     32 C29        -8.3850   -8.6912    4.3965 C.2       1 <0>         0.5019
     33 O3         -7.8398   -9.4739    3.6371 O.co2     1 <0>        -0.6703
     34 O4         -9.5725   -8.8105    4.6456 O.co2     1 <0>        -0.6891
     35 N2         -2.4086    1.6430   -1.9654 N.2       1 <0>        -1.0933
     36 S1         -2.7565    1.0813   -3.4839 S.o2      1 <0>         2.5202
     37 O5         -1.5488    0.4832   -3.9347 O.2       1 <0>        -1.0336
     38 O6         -3.9339    0.3025   -3.3215 O.2       1 <0>        -1.0309
     39 C30        -3.1197    2.5672   -4.4588 C.3       1 <0>        -0.6382
     40 H1         -0.8431    3.1270    0.4208 H         1 <0>         0.0556
     41 H2         -2.5634    3.1706   -0.0339 H         1 <0>         0.0566
     42 H3         -2.0969    2.8561    1.6548 H         1 <0>         0.0358
     43 H4         -2.2701   -0.9853   -2.1979 H         1 <0>         0.0967
     44 H5         -1.6899   -2.5676   -0.4058 H         1 <0>         0.0973
     45 H6         -1.1729   -1.7404    1.8520 H         1 <0>         0.0985
     46 H7          0.3840    0.9572    4.0291 H         1 <0>         0.0654
     47 H8          0.9111    0.5047    2.3903 H         1 <0>         0.0690
     48 H9          1.1321    2.1841    0.6482 H         1 <0>         0.1211
     49 H10         1.5527    4.5540    0.1290 H         1 <0>         0.1158
     50 H11         1.1405    6.2803    1.8359 H         1 <0>         0.1115
     51 H12         0.3068    5.6366    4.0616 H         1 <0>         0.1117
     52 H13        -0.1218    3.2674    4.5780 H         1 <0>         0.1134
     53 H14        -1.9689    1.7551    4.2884 H         1 <0>         0.0642
     54 H15        -3.1588    1.1719    3.1000 H         1 <0>         0.0701
     55 H16        -3.8034   -1.1680    3.0325 H         1 <0>         0.1245
     56 H17        -4.0505   -3.2627    4.3010 H         1 <0>         0.1259
     57 H18        -1.2071   -1.8545    7.1649 H         1 <0>         0.1229
     58 H19        -0.9596    0.2337    5.8857 H         1 <0>         0.1210
     59 H20        -2.1412   -5.7679    4.8542 H         1 <0>         0.1325
     60 H21        -3.6912   -7.4721    3.9877 H         1 <0>         0.1378
     61 H22        -6.8723   -5.7269    6.2447 H         1 <0>         0.1345
     62 H23        -5.3202   -4.0288    7.1196 H         1 <0>         0.1272
     63 H24        -7.6239   -7.6756    6.1122 H         1 <0>         0.0600
     64 H25        -8.0187   -6.6166    4.7371 H         1 <0>         0.0616
     65 H26        -2.2486    3.2223   -4.4610 H         1 <0>         0.1125
     66 H27        -3.3611    2.2803   -5.4822 H         1 <0>         0.0974
     67 H28        -3.9678    3.0920   -4.0189 H         1 <0>         0.1133
@<TRIPOS>BOND
     1    1    2 1
     2    1   40 1
     3    1   41 1
     4    1   42 1
     5    2    7 ar
     6    2    3 ar
     7    3    4 ar
     8    3   35 1
     9    4    5 ar
    10    4   43 1
    11    5    6 ar
    12    5   44 1
    13    6    7 ar
    14    6   45 1
    15    7    8 1
    16    8    9 1
    17    8   16 1
    18    9   10 1
    19    9   46 1
    20    9   47 1
    21   10   15 ar
    22   10   11 ar
    23   11   12 ar
    24   11   48 1
    25   12   13 ar
    26   12   49 1
    27   13   14 ar
    28   13   50 1
    29   14   15 ar
    30   14   51 1
    31   15   52 1
    32   16   17 1
    33   16   53 1
    34   16   54 1
    35   17   22 ar
    36   17   18 ar
    37   18   19 ar
    38   18   55 1
    39   19   20 ar
    40   19   56 1
    41   20   21 ar
    42   20   23 1
    43   21   22 ar
    44   21   57 1
    45   22   58 1
    46   23   24 1
    47   24   29 ar
    48   24   25 ar
    49   25   26 ar
    50   25   59 1
    51   26   27 ar
    52   26   60 1
    53   27   28 ar
    54   27   30 1
    55   28   29 ar
    56   28   61 1
    57   29   62 1
    58   30   31 1
    59   31   32 1
    60   31   63 1
    61   31   64 1
    62   32   33 2
    63   32   34 1
    64   35   36 1
    65   36   37 2
    66   36   38 2
    67   36   39 1
    68   39   65 1
    69   39   66 1
    70   39   67 1
@<TRIPOS>MOLECULE
CHEMBL190225__1
   68    71     0     0     0
SMALL
USER_CHARGES

@<TRIPOS>ATOM
      1 C1         -0.7132    1.3158   -0.3493 C.3       1 <0>        -0.1194
      2 C2         -0.5487   -0.1793   -0.2560 C.ar      1 <0>        -0.1049
      3 C3         -0.4932   -0.9464   -1.4113 C.ar      1 <0>         0.1469
      4 C4         -0.3415   -2.3247   -1.3217 C.ar      1 <0>        -0.1735
      5 C5         -0.2459   -2.9317   -0.0841 C.ar      1 <0>        -0.0896
      6 C6         -0.3012   -2.1712    1.0677 C.ar      1 <0>        -0.1271
      7 C7         -0.4466   -0.7914    0.9850 C.ar      1 <0>         0.1891
      8 N1         -0.4958   -0.0225    2.1500 N.pl3     1 <0>        -0.6584
      9 C8          0.7394    0.5168    2.7243 C.3       1 <0>         0.1831
     10 C9          1.0133    1.8780    2.1386 C.ar      1 <0>        -0.1008
     11 C10         1.7655    1.9953    0.9848 C.ar      1 <0>        -0.0982
     12 C11         2.0168    3.2439    0.4474 C.ar      1 <0>        -0.1263
     13 C12         1.5154    4.3752    1.0637 C.ar      1 <0>        -0.1195
     14 C13         0.7624    4.2578    2.2170 C.ar      1 <0>        -0.1227
     15 C14         0.5076    3.0089    2.7519 C.ar      1 <0>        -0.1056
     16 C15        -1.7824    0.2448    2.7975 C.3       1 <0>         0.1897
     17 C16        -2.0740   -0.8399    3.8023 C.ar      1 <0>        -0.1431
     18 C17        -2.7614   -1.9747    3.4129 C.ar      1 <0>        -0.0636
     19 C18        -3.0300   -2.9704    4.3319 C.ar      1 <0>        -0.1916
     20 C19        -2.6089   -2.8313    5.6467 C.ar      1 <0>         0.1278
     21 C20        -1.9188   -1.6917    6.0347 C.ar      1 <0>        -0.1519
     22 C21        -1.6486   -0.7011    5.1106 C.ar      1 <0>        -0.0714
     23 O1         -2.8721   -3.8091    6.5527 O.3       1 <0>        -0.2542
     24 C22        -3.4449   -4.9577    6.1040 C.ar      1 <0>         0.0189
     25 C23        -2.6796   -5.8957    5.4264 C.ar      1 <0>        -0.0882
     26 C24        -3.2615   -7.0624    4.9706 C.ar      1 <0>        -0.1472
     27 C25        -4.6110   -7.2963    5.1903 C.ar      1 <0>         0.1479
     28 C26        -5.3762   -6.3585    5.8678 C.ar      1 <0>        -0.2054
     29 C27        -4.7932   -5.1943    6.3287 C.ar      1 <0>        -0.0759
     30 O2         -5.1839   -8.4448    4.7411 O.3       1 <0>        -0.2765
     31 C28        -6.5778   -8.6198    5.0025 C.3       1 <0>        -0.0094
     32 C29        -7.0335   -9.9395    4.4352 C.2       1 <0>         0.5011
     33 O3         -6.2382  -10.6631    3.8603 O.co2     1 <0>        -0.6698
     34 O4         -8.1974  -10.2836    4.5510 O.co2     1 <0>        -0.6857
     35 N2         -0.5902   -0.3336   -2.6627 N.pl3     1 <0>        -1.0520
     36 S1         -1.3789   -1.0999   -3.9009 S.o2      1 <0>         2.6075
     37 O5         -1.3841   -0.1583   -4.9652 O.2       1 <0>        -0.9549
     38 O6         -0.7110   -2.3464   -4.0398 O.2       1 <0>        -0.9466
     39 C30        -3.0664   -1.3601   -3.2885 C.3       1 <0>        -0.6675
     40 H1          0.2684    1.7868   -0.4013 H         1 <0>         0.0828
     41 H2         -1.2829    1.5634   -1.2450 H         1 <0>         0.0544
     42 H3         -1.2441    1.6786    0.5308 H         1 <0>         0.0729
     43 H4         -0.2986   -2.9222   -2.2203 H         1 <0>         0.1581
     44 H5         -0.1280   -4.0032   -0.0172 H         1 <0>         0.1305
     45 H6         -0.2265   -2.6488    2.0335 H         1 <0>         0.1258
     46 H7          0.6304    0.6017    3.8056 H         1 <0>         0.0766
     47 H8          1.5691   -0.1515    2.4942 H         1 <0>         0.0725
     48 H9          2.1572    1.1115    0.5033 H         1 <0>         0.1178
     49 H10         2.6051    3.3356   -0.4536 H         1 <0>         0.1186
     50 H11         1.7123    5.3508    0.6443 H         1 <0>         0.1176
     51 H12         0.3710    5.1417    2.6986 H         1 <0>         0.1184
     52 H13        -0.0839    2.9169    3.6509 H         1 <0>         0.1183
     53 H14        -1.7405    1.2085    3.3051 H         1 <0>         0.0736
     54 H15        -2.5707    0.2644    2.0451 H         1 <0>         0.0700
     55 H16        -3.0889   -2.0824    2.3894 H         1 <0>         0.1192
     56 H17        -3.5676   -3.8562    4.0273 H         1 <0>         0.1292
     57 H18        -1.5902   -1.5808    7.0576 H         1 <0>         0.1278
     58 H19        -1.1083    0.1843    5.4112 H         1 <0>         0.1232
     59 H20        -1.6290   -5.7134    5.2551 H         1 <0>         0.1309
     60 H21        -2.6659   -7.7925    4.4428 H         1 <0>         0.1384
     61 H22        -6.4269   -6.5407    6.0388 H         1 <0>         0.1368
     62 H23        -5.3879   -4.4663    6.8604 H         1 <0>         0.1290
     63 H24        -6.7500   -8.6081    6.0787 H         1 <0>         0.0618
     64 H25        -7.1394   -7.8104    4.5359 H         1 <0>         0.0613
     65 H26        -0.1956    0.5408   -2.8064 H         1 <0>         0.4252
     66 H27        -3.5210   -0.3971   -3.0557 H         1 <0>         0.1306
     67 H28        -3.6566   -1.8650   -4.0532 H         1 <0>         0.1345
     68 H29        -3.0357   -1.9744   -2.3887 H         1 <0>         0.1330
@<TRIPOS>BOND
     1    1    2 1
     2    1   40 1
     3    1   41 1
     4    1   42 1
     5    2    7 ar
     6    2    3 ar
     7    3    4 ar
     8    3   35 1
     9    4    5 ar
    10    4   43 1
    11    5    6 ar
    12    5   44 1
    13    6    7 ar
    14    6   45 1
    15    7    8 1
    16    8    9 1
    17    8   16 1
    18    9   10 1
    19    9   46 1
    20    9   47 1
    21   10   15 ar
    22   10   11 ar
    23   11   12 ar
    24   11   48 1
    25   12   13 ar
    26   12   49 1
    27   13   14 ar
    28   13   50 1
    29   14   15 ar
    30   14   51 1
    31   15   52 1
    32   16   17 1
    33   16   53 1
    34   16   54 1
    35   17   22 ar
    36   17   18 ar
    37   18   19 ar
    38   18   55 1
    39   19   20 ar
    40   19   56 1
    41   20   21 ar
    42   20   23 1
    43   21   22 ar
    44   21   57 1
    45   22   58 1
    46   23   24 1
    47   24   29 ar
    48   24   25 ar
    49   25   26 ar
    50   25   59 1
    51   26   27 ar
    52   26   60 1
    53   27   28 ar
    54   27   30 1
    55   28   29 ar
    56   28   61 1
    57   29   62 1
    58   30   31 1
    59   31   32 1
    60   31   63 1
    61   31   64 1
    62   32   33 2
    63   32   34 1
    64   35   36 1
    65   35   65 1
    66   36   37 2
    67   36   38 2
    68   36   39 1
    69   39   66 1
    70   39   67 1
    71   39   68 1
@<TRIPOS>MOLECULE
CHEMBL158091
   67    72     0     0     0
SMALL
NO_CHARGES

@<TRIPOS>ATOM
      1 C1         -0.4591    1.4575    0.6744 C.3       1 <0>        -0.1567
      2 C2         -0.7932    0.0135    0.2948 C.3       1 <0>        -0.0391
      3 C3         -2.1894   -0.3341    0.7754 C.3       1 <0>        -0.1215
      4 C4         -2.2396   -0.0352    2.2820 C.3       1 <0>         0.0895
      5 H1         -3.2226   -0.3075    2.6661 H         1 <0>         0.0723
      6 C5         -1.1732   -0.8144    3.0460 C.3       1 <0>         0.1589
      7 C6          0.2296   -0.5691    2.4682 C.3       1 <0>        -0.0952
      8 C7          0.1910   -0.9569    1.0009 C.3       1 <0>        -0.0821
      9 C8          1.4847   -0.7124    0.2171 C.3       1 <0>        -0.1143
     10 C9          0.9936   -0.6234   -1.2538 C.3       1 <0>         0.0677
     11 H2          1.5892    0.0692   -1.8485 H         1 <0>         0.1052
     12 C10        -0.5066   -0.2108   -1.1849 C.3       1 <0>         0.1141
     13 O1         -1.2235   -1.3662   -1.6601 O.3       1 <0>        -0.3210
     14 C11        -0.2779   -2.0615   -2.5010 C.3       1 <0>         0.2363
     15 O2          0.9914   -1.9574   -1.8023 O.3       1 <0>        -0.3560
     16 C12        -0.1807   -1.3829   -3.8688 C.3       1 <0>        -0.2090
     17 C13        -0.6827   -3.5285   -2.6593 C.3       1 <0>        -0.1371
     18 S1         -0.8476    1.2736   -2.1702 S.3       1 <0>        -0.1714
     19 C14        -2.2194    0.7787   -3.2490 C.3       1 <0>        -0.1507
     20 H3         -1.9667   -0.1308   -3.7942 H         1 <0>         0.1380
     21 C15        -2.5761    1.9213   -4.2337 C.3       1 <0>        -0.1347
     22 C16        -4.1271    1.8656   -4.1912 C.3       1 <0>         0.0534
     23 O3         -4.3943    1.5050   -2.8195 O.3       1 <0>        -0.3393
     24 C17        -3.4870    0.5792   -2.4403 C.2       1 <0>         0.4851
     25 O4         -3.6552   -0.2688   -1.5962 O.2       1 <0>        -0.4106
     26 C18         1.2496   -1.4373    3.2072 C.3       1 <0>        -0.1420
     27 C19         1.3131   -1.0191    4.6796 C.3       1 <0>         0.1266
     28 H4          1.6865    0.0021    4.7565 H         1 <0>         0.1075
     29 C20        -0.0901   -1.0960    5.2518 C.2       1 <0>        -0.0781
     30 C21        -0.2914   -1.7787    6.3703 C.2       1 <0>        -0.1947
     31 C22        -1.6412   -1.8936    6.9438 C.2       1 <0>         0.4085
     32 O5         -1.8243   -2.4863    7.9907 O.2       1 <0>        -0.4481
     33 C23        -2.7658   -1.2746    6.2221 C.2       1 <0>        -0.2080
     34 C24        -2.5407   -0.5923    5.1104 C.2       1 <0>        -0.0677
     35 C25        -1.1891   -0.3874    4.5166 C.3       1 <0>        -0.0236
     36 C26        -0.8957    1.1133    4.5696 C.3       1 <0>        -0.1376
     37 F1          2.1585   -1.8854    5.3809 F         1 <0>        -0.1967
     38 F2         -1.4533   -2.1824    2.9611 F         1 <0>        -0.1882
     39 O6         -2.0300    1.3634    2.4872 O.3       1 <0>        -0.5423
     40 H5          0.4792    1.7494    0.2028 H         1 <0>         0.0454
     41 H6         -1.2575    2.1168    0.3335 H         1 <0>         0.0687
     42 H7         -0.3612    1.5352    1.7572 H         1 <0>         0.1090
     43 H8         -2.9249    0.2761    0.2512 H         1 <0>         0.0880
     44 H9         -2.3898   -1.3910    0.5998 H         1 <0>         0.0861
     45 H10         0.4873    0.4857    2.5632 H         1 <0>         0.1186
     46 H11        -0.1444   -1.9879    0.8884 H         1 <0>         0.0932
     47 H12         1.9504    0.2238    0.5249 H         1 <0>         0.0887
     48 H13         2.1748   -1.5467    0.3429 H         1 <0>         0.0900
     49 H14         0.0421   -0.3244   -3.7342 H         1 <0>         0.0824
     50 H15         0.6138   -1.8503   -4.4506 H         1 <0>         0.0853
     51 H16        -1.1286   -1.4905   -4.3960 H         1 <0>         0.0751
     52 H17        -1.6714   -3.5855   -3.1147 H         1 <0>         0.0789
     53 H18         0.0405   -4.0382   -3.2959 H         1 <0>         0.0815
     54 H19        -0.7055   -4.0068   -1.6801 H         1 <0>         0.0755
     55 H20        -2.2067    2.8813   -3.8731 H         1 <0>         0.1009
     56 H21        -2.2019    1.7090   -5.2352 H         1 <0>         0.1072
     57 H22        -4.5553    2.8403   -4.4250 H         1 <0>         0.1219
     58 H23        -4.5051    1.1029   -4.8720 H         1 <0>         0.0868
     59 H24         0.9516   -2.4836    3.1399 H         1 <0>         0.0885
     60 H25         2.2316   -1.3105    2.7515 H         1 <0>         0.0932
     61 H26         0.5426   -2.2547    6.8644 H         1 <0>         0.1477
     62 H27        -3.7726   -1.3773    6.5992 H         1 <0>         0.1435
     63 H28        -3.3887   -0.1577    4.6021 H         1 <0>         0.1315
     64 H29        -1.7999    1.6693    4.3217 H         1 <0>         0.1031
     65 H30        -0.5664    1.3839    5.5728 H         1 <0>         0.0569
     66 H31        -0.1119    1.3558    3.8521 H         1 <0>         0.0750
     67 H32        -2.6887    1.9268    2.0585 H         1 <0>         0.3800
@<TRIPOS>BOND
     1    1    2 1
     2    1   40 1
     3    1   41 1
     4    1   42 1
     5    2    8 1
     6    2   12 1
     7    2    3 1
     8    3    4 1
     9    3   43 1
    10    3   44 1
    11    4    5 1
    12    4    6 1
    13    4   39 1
    14    6   35 1
    15    6    7 1
    16    6   38 1
    17    7    8 1
    18    7   26 1
    19    7   45 1
    20    8    9 1
    21    8   46 1
    22    9   10 1
    23    9   47 1
    24    9   48 1
    25   10   11 1
    26   10   15 1
    27   10   12 1
    28   12   13 1
    29   12   18 1
    30   13   14 1
    31   14   15 1
    32   14   16 1
    33   14   17 1
    34   16   49 1
    35   16   50 1
    36   16   51 1
    37   17   52 1
    38   17   53 1
    39   17   54 1
    40   18   19 1
    41   19   20 1
    42   19   24 1
    43   19   21 1
    44   21   22 1
    45   21   55 1
    46   21   56 1
    47   22   23 1
    48   22   57 1
    49   22   58 1
    50   23   24 1
    51   24   25 2
    52   26   27 1
    53   26   59 1
    54   26   60 1
    55   27   28 1
    56   27   29 1
    57   27   37 1
    58   29   35 1
    59   29   30 2
    60   30   31 1
    61   30   61 1
    62   31   32 2
    63   31   33 1
    64   33   34 2
    65   33   62 1
    66   34   35 1
    67   34   63 1
    68   35   36 1
    69   36   64 1
    70   36   65 1
    71   36   66 1
    72   39   67 1
@<TRIPOS>MOLECULE
CHEMBL158091__1
   67    72     0     0     0
SMALL
USER_CHARGES

@<TRIPOS>ATOM
      1 C1         -0.1044    0.7875   -1.1801 C.3       1 <0>        -0.1580
      2 C2         -0.2538   -0.6985   -0.8476 C.3       1 <0>        -0.0131
      3 C3         -1.6978   -1.0525   -0.4820 C.3       1 <0>        -0.1308
      4 C4         -2.0604   -0.4742    0.8826 C.3       1 <0>         0.0905
      5 H1         -3.1037   -0.6955    1.1076 H         1 <0>         0.0731
      6 C5         -1.1590   -1.1129    1.9455 C.3       1 <0>         0.1586
      7 C6          0.2912   -0.7337    1.6483 C.3       1 <0>        -0.0858
      8 C7          0.7070   -1.1298    0.2725 C.3       1 <0>        -0.0748
      9 C8          0.7782   -2.6599    0.1165 C.3       1 <0>        -0.1386
     10 C9          0.8009   -2.8680   -1.4139 C.3       1 <0>         0.0669
     11 H2          1.8114   -3.0408   -1.7842 H         1 <0>         0.1000
     12 C10         0.1648   -1.6006   -2.0385 C.3       1 <0>         0.1029
     13 O1         -1.0342   -2.0733   -2.6868 O.3       1 <0>        -0.3221
     14 C11        -0.7923   -3.4750   -2.9327 C.3       1 <0>         0.2341
     15 O2         -0.0864   -3.9535   -1.7493 O.3       1 <0>        -0.3542
     16 C12         0.0895   -3.6551   -4.1699 C.3       1 <0>        -0.2039
     17 C13        -2.1160   -4.2224   -3.1060 C.3       1 <0>        -0.1368
     18 S1          1.2917   -0.7532   -3.1799 S.3       1 <0>        -0.1714
     19 C14         0.3287   -0.5924   -4.7087 C.3       1 <0>        -0.1427
     20 H3         -0.0645   -1.5617   -5.0154 H         1 <0>         0.1363
     21 C15         1.1966    0.0233   -5.8357 C.3       1 <0>        -0.1355
     22 C16         0.1834    1.0121   -6.4731 C.3       1 <0>         0.0532
     23 O3         -0.5790    1.4637   -5.3339 O.3       1 <0>        -0.3384
     24 C17        -0.7991    0.4051   -4.5246 C.2       1 <0>         0.4887
     25 O4         -1.7386    0.2725   -3.7766 O.2       1 <0>        -0.4123
     26 C18         1.2213   -1.3664    2.6872 C.3       1 <0>        -0.1442
     27 C19         0.9019   -0.8072    4.0770 C.3       1 <0>         0.1271
     28 H4          1.1189    0.2606    4.1032 H         1 <0>         0.1082
     29 C20        -0.5730   -1.0376    4.3482 C.2       1 <0>        -0.0781
     30 C21        -0.9346   -1.6398    5.4723 C.2       1 <0>        -0.1944
     31 C22        -2.3544   -1.8983    5.7583 C.2       1 <0>         0.4083
     32 O5         -2.6939   -2.4161    6.8059 O.2       1 <0>        -0.4477
     33 C23        -3.3556   -1.5158    4.7483 C.2       1 <0>        -0.2062
     34 C24        -2.9719   -0.9093    3.6359 C.2       1 <0>        -0.0692
     35 C25        -1.5571   -0.5645    3.3198 C.3       1 <0>        -0.0245
     36 C26        -1.4689    0.9616    3.2556 C.3       1 <0>        -0.1380
     37 F1          1.6699   -1.4693    5.0409 F         1 <0>        -0.1964
     38 F2         -1.3178   -2.5028    1.9269 F         1 <0>        -0.1810
     39 O6         -1.8627    0.9410    0.8709 O.3       1 <0>        -0.5428
     40 H5          0.9159    0.9856   -1.5083 H         1 <0>         0.0668
     41 H6         -0.8001    1.0534   -1.9760 H         1 <0>         0.0645
     42 H7         -0.3228    1.3820   -0.2931 H         1 <0>         0.0883
     43 H8         -2.3707   -0.6449   -1.2364 H         1 <0>         0.0880
     44 H9         -1.8069   -2.1367   -0.4544 H         1 <0>         0.0831
     45 H10         0.3913    0.3487    1.7286 H         1 <0>         0.1116
     46 H11         1.6960   -0.7182    0.0713 H         1 <0>         0.0854
     47 H12         1.6894   -3.0496    0.5702 H         1 <0>         0.0821
     48 H13        -0.1015   -3.1314    0.5546 H         1 <0>         0.1091
     49 H14         1.0264   -3.1158   -4.0300 H         1 <0>         0.0787
     50 H15         0.2986   -4.7149   -4.3159 H         1 <0>         0.0846
     51 H16        -0.4282   -3.2630   -5.0453 H         1 <0>         0.0743
     52 H17        -2.6621   -3.8029   -3.9510 H         1 <0>         0.0788
     53 H18        -1.9158   -5.2778   -3.2907 H         1 <0>         0.0814
     54 H19        -2.7131   -4.1189   -2.2000 H         1 <0>         0.0749
     55 H20         2.0573    0.5517   -5.4255 H         1 <0>         0.1014
     56 H21         1.5087   -0.7367   -6.5519 H         1 <0>         0.1078
     57 H22         0.7024    1.8458   -6.9460 H         1 <0>         0.1224
     58 H23        -0.4587    0.4992   -7.1891 H         1 <0>         0.0871
     59 H24         1.0797   -2.4471    2.6900 H         1 <0>         0.0887
     60 H25         2.2565   -1.1380    2.4337 H         1 <0>         0.0927
     61 H26        -0.1809   -1.9434    6.1838 H         1 <0>         0.1479
     62 H27        -4.4010   -1.7301    4.9146 H         1 <0>         0.1439
     63 H28        -3.7308   -0.6486    2.9130 H         1 <0>         0.1311
     64 H29        -2.3062    1.3498    2.6756 H         1 <0>         0.0998
     65 H30        -1.5057    1.3704    4.2653 H         1 <0>         0.0575
     66 H31        -0.5320    1.2517    2.7801 H         1 <0>         0.0775
     67 H32        -2.3969    1.4073    0.2134 H         1 <0>         0.3836
@<TRIPOS>BOND
     1    1    2 1
     2    1   40 1
     3    1   41 1
     4    1   42 1
     5    2    8 1
     6    2   12 1
     7    2    3 1
     8    3    4 1
     9    3   43 1
    10    3   44 1
    11    4    5 1
    12    4    6 1
    13    4   39 1
    14    6   35 1
    15    6    7 1
    16    6   38 1
    17    7    8 1
    18    7   26 1
    19    7   45 1
    20    8    9 1
    21    8   46 1
    22    9   10 1
    23    9   47 1
    24    9   48 1
    25   10   11 1
    26   10   15 1
    27   10   12 1
    28   12   13 1
    29   12   18 1
    30   13   14 1
    31   14   15 1
    32   14   16 1
    33   14   17 1
    34   16   49 1
    35   16   50 1
    36   16   51 1
    37   17   52 1
    38   17   53 1
    39   17   54 1
    40   18   19 1
    41   19   20 1
    42   19   24 1
    43   19   21 1
    44   21   22 1
    45   21   55 1
    46   21   56 1
    47   22   23 1
    48   22   57 1
    49   22   58 1
    50   23   24 1
    51   24   25 2
    52   26   27 1
    53   26   59 1
    54   26   60 1
    55   27   28 1
    56   27   29 1
    57   27   37 1
    58   29   35 1
    59   29   30 2
    60   30   31 1
    61   30   61 1
    62   31   32 2
    63   31   33 1
    64   33   34 2
    65   33   62 1
    66   34   35 1
    67   34   63 1
    68   35   36 1
    69   36   64 1
    70   36   65 1
    71   36   66 1
    72   39   67 1
@<TRIPOS>MOLECULE
CHEMBL158091__2
   67    72     0     0     0
SMALL
USER_CHARGES

@<TRIPOS>ATOM
      1 C1          0.5868    1.1532    0.4346 C.3       1 <0>        -0.1656
      2 C2          0.5060   -0.3503    0.1751 C.3       1 <0>        -0.0239
      3 C3         -0.9223   -0.8364    0.1732 C.3       1 <0>        -0.1232
      4 C4         -1.5097   -0.7609    1.5968 C.3       1 <0>         0.1031
      5 H1         -2.5093   -1.2230    1.5323 H         1 <0>         0.0660
      6 C5         -0.6758   -1.5435    2.5878 C.3       1 <0>         0.1681
      7 C6          0.8028   -1.1217    2.5770 C.3       1 <0>        -0.0779
      8 C7          1.3264   -1.1816    1.1818 C.3       1 <0>        -0.0810
      9 C8          2.7510   -0.6983    0.8919 C.3       1 <0>        -0.1139
     10 C9          2.7782   -0.7169   -0.6663 C.3       1 <0>         0.0707
     11 H2          3.4060    0.0715   -1.0766 H         1 <0>         0.1078
     12 C10         1.2937   -0.6077   -1.1237 C.3       1 <0>         0.1055
     13 O1          0.9722   -1.8976   -1.6569 O.3       1 <0>        -0.3213
     14 C11         2.2320   -2.4741   -2.0563 C.3       1 <0>         0.2405
     15 O2          3.1907   -2.0345   -1.0759 O.3       1 <0>        -0.3582
     16 C12         2.1347   -4.0044   -2.0482 C.3       1 <0>        -0.1395
     17 C13         2.6309   -1.9873   -3.4519 C.3       1 <0>        -0.2009
     18 S1          1.0367    0.7309   -2.3182 S.3       1 <0>        -0.1734
     19 C14         0.1831   -0.0737   -3.7019 C.3       1 <0>        -0.1491
     20 H3          0.7441   -0.9444   -4.0415 H         1 <0>         0.1356
     21 C15        -0.0259    0.9267   -4.8673 C.3       1 <0>        -0.1347
     22 C16        -1.4773    0.5760   -5.2923 C.3       1 <0>         0.0534
     23 O3         -2.1041    0.2418   -4.0358 O.3       1 <0>        -0.3397
     24 C17        -1.2243   -0.4713   -3.2999 C.2       1 <0>         0.4857
     25 O4         -1.5094   -1.2912   -2.4594 O.2       1 <0>        -0.4111
     26 C18         0.9518    0.2118    3.2927 C.3       1 <0>        -0.1434
     27 C19         0.7804   -0.0481    4.7931 C.3       1 <0>         0.1274
     28 H4          0.5465    0.8897    5.2955 H         1 <0>         0.1039
     29 C20        -0.3276   -1.0340    5.0519 C.2       1 <0>        -0.0699
     30 C21        -0.5497   -1.3419    6.3452 C.2       1 <0>        -0.1952
     31 C22        -1.5678   -2.3629    6.6721 C.2       1 <0>         0.4075
     32 O5         -2.1064   -2.4144    7.7699 O.2       1 <0>        -0.4460
     33 C23        -1.8764   -3.3544    5.6144 C.2       1 <0>        -0.2214
     34 C24        -1.6607   -3.0181    4.3373 C.2       1 <0>        -0.0721
     35 C25        -1.1946   -1.6273    3.9964 C.3       1 <0>        -0.0214
     36 C26        -2.4884   -0.8168    4.0757 C.3       1 <0>        -0.1540
     37 F1          1.9754   -0.5623    5.3084 F         1 <0>        -0.1995
     38 F2         -0.6724   -2.8806    2.1092 F         1 <0>        -0.2041
     39 O6         -1.6771    0.6059    1.9510 O.3       1 <0>        -0.5492
     40 H5          1.6268    1.4754    0.3834 H         1 <0>         0.0539
     41 H6          0.0046    1.6837   -0.3189 H         1 <0>         0.0749
     42 H7          0.1865    1.3731    1.4243 H         1 <0>         0.0968
     43 H8         -1.5275   -0.2173   -0.4948 H         1 <0>         0.0781
     44 H9         -0.9645   -1.8730   -0.1736 H         1 <0>         0.0939
     45 H10         1.3506   -1.8825    3.1756 H         1 <0>         0.0874
     46 H11         1.2809   -2.2464    0.8519 H         1 <0>         0.0884
     47 H12         2.9390    0.2934    1.2818 H         1 <0>         0.0904
     48 H13         3.4803   -1.4114    1.2859 H         1 <0>         0.0880
     49 H14         1.3582   -4.3227   -2.7437 H         1 <0>         0.0783
     50 H15         3.0910   -4.4308   -2.3512 H         1 <0>         0.0805
     51 H16         1.8859   -4.3473   -1.0440 H         1 <0>         0.0745
     52 H17         2.6622   -0.8977   -3.4614 H         1 <0>         0.0758
     53 H18         3.6147   -2.3812   -3.7067 H         1 <0>         0.0847
     54 H19         1.8998   -2.3361   -4.1811 H         1 <0>         0.0745
     55 H20         0.0440    1.9572   -4.5187 H         1 <0>         0.1007
     56 H21         0.6780    0.7390   -5.6781 H         1 <0>         0.1068
     57 H22        -1.9646    1.4367   -5.7504 H         1 <0>         0.1216
     58 H23        -1.4861   -0.2793   -5.9680 H         1 <0>         0.0865
     59 H24         1.9465    0.6294    3.1140 H         1 <0>         0.0915
     60 H25         0.1984    0.9303    2.9804 H         1 <0>         0.1172
     61 H26         0.0158   -0.8400    7.1351 H         1 <0>         0.1511
     62 H27        -2.2735   -4.3395    5.8745 H         1 <0>         0.1498
     63 H28        -1.8247   -3.7463    3.5443 H         1 <0>         0.1530
     64 H29        -3.2195   -1.2307    3.3812 H         1 <0>         0.0681
     65 H30        -2.8844   -0.8628    5.0901 H         1 <0>         0.0595
     66 H31        -2.2839    0.2209    3.8121 H         1 <0>         0.1006
     67 H32        -2.2707    1.0944    1.3644 H         1 <0>         0.3881
@<TRIPOS>BOND
     1    1    2 1
     2    1   40 1
     3    1   41 1
     4    1   42 1
     5    2    8 1
     6    2   12 1
     7    2    3 1
     8    3    4 1
     9    3   43 1
    10    3   44 1
    11    4    5 1
    12    4    6 1
    13    4   39 1
    14    6   35 1
    15    6    7 1
    16    6   38 1
    17    7    8 1
    18    7   26 1
    19    7   45 1
    20    8    9 1
    21    8   46 1
    22    9   10 1
    23    9   47 1
    24    9   48 1
    25   10   11 1
    26   10   15 1
    27   10   12 1
    28   12   13 1
    29   12   18 1
    30   13   14 1
    31   14   15 1
    32   14   16 1
    33   14   17 1
    34   16   49 1
    35   16   50 1
    36   16   51 1
    37   17   52 1
    38   17   53 1
    39   17   54 1
    40   18   19 1
    41   19   20 1
    42   19   24 1
    43   19   21 1
    44   21   22 1
    45   21   55 1
    46   21   56 1
    47   22   23 1
    48   22   57 1
    49   22   58 1
    50   23   24 1
    51   24   25 2
    52   26   27 1
    53   26   59 1
    54   26   60 1
    55   27   28 1
    56   27   29 1
    57   27   37 1
    58   29   35 1
    59   29   30 2
    60   30   31 1
    61   30   61 1
    62   31   32 2
    63   31   33 1
    64   33   34 2
    65   33   62 1
    66   34   35 1
    67   34   63 1
    68   35   36 1
    69   36   64 1
    70   36   65 1
    71   36   66 1
    72   39   67 1
@<TRIPOS>MOLECULE
CHEMBL158091__3
   67    72     0     0     0
SMALL
USER_CHARGES

@<TRIPOS>ATOM
      1 C1          0.6139    0.1913   -0.4334 C.3       1 <0>        -0.1640
      2 C2          0.4363   -1.3284   -0.4343 C.3       1 <0>        -0.0147
      3 C3         -1.0422   -1.7235   -0.4734 C.3       1 <0>        -0.1304
      4 C4         -1.7172   -1.4123    0.8595 C.3       1 <0>         0.0830
      5 H1         -2.7772   -1.6591    0.7989 H         1 <0>         0.0861
      6 C5         -1.0547   -2.2556    1.9550 C.3       1 <0>         0.1632
      7 C6          0.4117   -1.8555    2.0606 C.3       1 <0>        -0.0847
      8 C7          1.1377   -1.9839    0.7681 C.3       1 <0>        -0.0728
      9 C8          1.2837   -3.4559    0.3396 C.3       1 <0>        -0.1408
     10 C9          1.6471   -3.3650   -1.1586 C.3       1 <0>         0.0675
     11 H2          2.7181   -3.4823   -1.3236 H         1 <0>         0.0993
     12 C10         1.1330   -1.9893   -1.6527 C.3       1 <0>         0.1030
     13 O1          0.1212   -2.3050   -2.6314 O.3       1 <0>        -0.3203
     14 C11         0.4449   -3.6381   -3.0804 C.3       1 <0>         0.2337
     15 O2          0.8816   -4.3483   -1.8835 O.3       1 <0>        -0.3547
     16 C12        -0.7891   -4.3121   -3.6835 C.3       1 <0>        -0.1363
     17 C13         1.5835   -3.5952   -4.1015 C.3       1 <0>        -0.2047
     18 S1          2.4633   -0.9568   -2.3273 S.3       1 <0>        -0.1719
     19 C14         1.8667   -0.4951   -3.9770 C.3       1 <0>        -0.1428
     20 H3          1.6100   -1.3846   -4.5524 H         1 <0>         0.1356
     21 C15         2.9320    0.3470   -4.7243 C.3       1 <0>        -0.1355
     22 C16         2.0359    1.4357   -5.3742 C.3       1 <0>         0.0533
     23 O3          1.0091    1.6367   -4.3799 O.3       1 <0>        -0.3387
     24 C17         0.6714    0.4325   -3.8701 C.2       1 <0>         0.4881
     25 O4         -0.4048    0.1403   -3.4050 O.2       1 <0>        -0.4110
     26 C18         0.4802   -0.4069    2.5616 C.3       1 <0>        -0.1789
     27 C19         0.1171   -0.4164    4.0479 C.3       1 <0>         0.1343
     28 H4         -0.0270    0.6083    4.3903 H         1 <0>         0.0998
     29 C20        -1.1443   -1.1972    4.2739 C.2       1 <0>        -0.0758
     30 C21        -1.7454   -1.1051    5.4830 C.2       1 <0>        -0.1929
     31 C22        -2.9593   -1.9517    5.6429 C.2       1 <0>         0.4139
     32 O5         -3.9652   -1.5564    6.2021 O.2       1 <0>        -0.4396
     33 C23        -2.8473   -3.3200    5.0660 C.2       1 <0>        -0.2177
     34 C24        -2.2367   -3.3838    3.8627 C.2       1 <0>        -0.0835
     35 C25        -1.7836   -2.0835    3.2605 C.3       1 <0>        -0.0255
     36 C26        -3.0866   -1.3726    2.8894 C.3       1 <0>        -0.1745
     37 F1          1.1576   -1.0050    4.7746 F         1 <0>        -0.2031
     38 F2         -1.1114   -3.6027    1.5817 F         1 <0>        -0.1861
     39 O6         -1.5649   -0.0239    1.1613 O.3       1 <0>        -0.5350
     40 H5          1.6734    0.4333   -0.5172 H         1 <0>         0.0687
     41 H6          0.0753    0.6205   -1.2782 H         1 <0>         0.0624
     42 H7          0.2197    0.6026    0.4958 H         1 <0>         0.0909
     43 H8         -1.5416   -1.1683   -1.2673 H         1 <0>         0.0880
     44 H9         -1.1235   -2.7913   -0.6766 H         1 <0>         0.0848
     45 H10         0.8934   -2.4892    2.8052 H         1 <0>         0.0881
     46 H11         2.1338   -1.5552    0.8782 H         1 <0>         0.0841
     47 H12         2.0837   -3.9404    0.8994 H         1 <0>         0.0805
     48 H13         0.3428   -3.9894    0.4742 H         1 <0>         0.1133
     49 H14        -1.1436   -3.7279   -4.5327 H         1 <0>         0.0785
     50 H15        -0.5279   -5.3164   -4.0172 H         1 <0>         0.0809
     51 H16        -1.5748   -4.3722   -2.9305 H         1 <0>         0.0747
     52 H17         2.4336   -3.0623   -3.6756 H         1 <0>         0.0785
     53 H18         1.8824   -4.6123   -4.3553 H         1 <0>         0.0845
     54 H19         1.2457   -3.0806   -5.0010 H         1 <0>         0.0742
     55 H20         3.6446    0.7883   -4.0275 H         1 <0>         0.1014
     56 H21         3.4422   -0.2469   -5.4826 H         1 <0>         0.1076
     57 H22         2.6003    2.3537   -5.5379 H         1 <0>         0.1222
     58 H23         1.6044    1.0744   -6.3076 H         1 <0>         0.0868
     59 H24         1.4894   -0.0169    2.4296 H         1 <0>         0.0841
     60 H25        -0.2306    0.2092    2.0108 H         1 <0>         0.1604
     61 H26        -1.3730   -0.4672    6.2709 H         1 <0>         0.1568
     62 H27        -3.2256   -4.1959    5.5720 H         1 <0>         0.1554
     63 H28        -2.0812   -4.3253    3.3571 H         1 <0>         0.1515
     64 H29        -3.6082   -1.9465    2.1235 H         1 <0>         0.0707
     65 H30        -3.7187   -1.2878    3.7734 H         1 <0>         0.0592
     66 H31        -2.8612   -0.3770    2.5071 H         1 <0>         0.1055
     67 H32        -1.9530    0.5669    0.5014 H         1 <0>         0.3811
@<TRIPOS>BOND
     1    1    2 1
     2    1   40 1
     3    1   41 1
     4    1   42 1
     5    2    8 1
     6    2   12 1
     7    2    3 1
     8    3    4 1
     9    3   43 1
    10    3   44 1
    11    4    5 1
    12    4    6 1
    13    4   39 1
    14    6   35 1
    15    6    7 1
    16    6   38 1
    17    7    8 1
    18    7   26 1
    19    7   45 1
    20    8    9 1
    21    8   46 1
    22    9   10 1
    23    9   47 1
    24    9   48 1
    25   10   11 1
    26   10   15 1
    27   10   12 1
    28   12   13 1
    29   12   18 1
    30   13   14 1
    31   14   15 1
    32   14   16 1
    33   14   17 1
    34   16   49 1
    35   16   50 1
    36   16   51 1
    37   17   52 1
    38   17   53 1
    39   17   54 1
    40   18   19 1
    41   19   20 1
    42   19   24 1
    43   19   21 1
    44   21   22 1
    45   21   55 1
    46   21   56 1
    47   22   23 1
    48   22   57 1
    49   22   58 1
    50   23   24 1
    51   24   25 2
    52   26   27 1
    53   26   59 1
    54   26   60 1
    55   27   28 1
    56   27   29 1
    57   27   37 1
    58   29   35 1
    59   29   30 2
    60   30   31 1
    61   30   61 1
    62   31   32 2
    63   31   33 1
    64   33   34 2
    65   33   62 1
    66   34   35 1
    67   34   63 1
    68   35   36 1
    69   36   64 1
    70   36   65 1
    71   36   66 1
    72   39   67 1
@<TRIPOS>MOLECULE
CHEMBL438503
   52    55     0     0     0
SMALL
USER_CHARGES

@<TRIPOS>ATOM
      1 C1         -0.2679    1.4586    0.4598 C.3       1 <0>         0.0783
      2 N1         -0.1421    0.0108    0.2748 N.am      1 <0>        -0.5554
      3 C2         -1.2349   -0.7234   -0.0128 C.2       1 <0>         0.5560
      4 O1         -2.3242   -0.1861   -0.1188 O.2       1 <0>        -0.5057
      5 C3         -1.1115   -2.1103   -0.1900 C.2       1 <0>        -0.2535
      6 C4          0.1213   -2.6884   -0.0662 C.2       1 <0>         0.4488
      7 N2          1.2086   -1.9021    0.2279 N.am      1 <0>        -0.6469
      8 H1          2.0860   -2.3061    0.3167 H         1 <0>         0.4289
      9 C5          1.0645   -0.5737    0.3880 C.2       1 <0>         0.7004
     10 O2          2.0384    0.1079    0.6434 O.2       1 <0>        -0.5400
     11 N3          0.2709   -4.0413   -0.2337 N.pl3     1 <0>        -0.6598
     12 C6          0.3665   -4.6222   -1.5803 C.3       1 <0>         0.1229
     13 C7          1.6584   -5.4440   -1.6690 C.3       1 <0>         0.1046
     14 N4          1.7266   -6.3388   -0.5051 N.pl3     1 <0>        -0.6280
     15 C8          1.6310   -5.7579    0.8415 C.3       1 <0>         0.1027
     16 C9          0.3447   -4.9355    0.9303 C.3       1 <0>         0.1189
     17 C10         1.8790   -7.7167   -0.6757 C.ar      1 <0>         0.2172
     18 C11         2.1049   -8.2405   -1.9423 C.ar      1 <0>        -0.1983
     19 C12         2.2557   -9.6033   -2.1074 C.ar      1 <0>        -0.0710
     20 C13         2.1815  -10.4463   -1.0136 C.ar      1 <0>        -0.1773
     21 C14         1.9568   -9.9281    0.2486 C.ar      1 <0>        -0.0710
     22 C15         1.8108   -8.5657    0.4216 C.ar      1 <0>        -0.1987
     23 C16        -2.3206   -2.9503   -0.5116 C.3       1 <0>         0.0017
     24 C17        -3.0317   -3.3170    0.7655 C.ar      1 <0>        -0.0770
     25 C18        -2.7861   -4.5369    1.3675 C.ar      1 <0>        -0.1208
     26 C19        -3.4383   -4.8732    2.5390 C.ar      1 <0>        -0.1233
     27 C20        -4.3358   -3.9895    3.1087 C.ar      1 <0>        -0.1228
     28 C21        -4.5807   -2.7693    2.5071 C.ar      1 <0>        -0.1205
     29 C22        -3.9252   -2.4311    1.3379 C.ar      1 <0>        -0.1065
     30 H2          0.7117    1.8833    0.6793 H         1 <0>         0.1003
     31 H3         -0.6630    1.9083   -0.4511 H         1 <0>         0.0810
     32 H4         -0.9459    1.6614    1.2888 H         1 <0>         0.0806
     33 H5         -0.4918   -5.2693   -1.7613 H         1 <0>         0.0757
     34 H6          0.3890   -3.8241   -2.3223 H         1 <0>         0.0880
     35 H7          1.6540   -6.0349   -2.5849 H         1 <0>         0.0963
     36 H8          2.5187   -4.7746   -1.6667 H         1 <0>         0.0649
     37 H9          1.6085   -6.5560    1.5835 H         1 <0>         0.0964
     38 H10         2.4893   -5.1108    1.0225 H         1 <0>         0.0640
     39 H11         0.3529   -4.3441    1.8459 H         1 <0>         0.0852
     40 H12        -0.5151   -5.6053    0.9321 H         1 <0>         0.0797
     41 H13         2.1622   -7.5828   -2.7970 H         1 <0>         0.1212
     42 H14         2.4313  -10.0113   -3.0918 H         1 <0>         0.1206
     43 H15         2.2991  -11.5117   -1.1456 H         1 <0>         0.1181
     44 H16         1.8994  -10.5892    1.1007 H         1 <0>         0.1206
     45 H17         1.6398   -8.1613    1.4083 H         1 <0>         0.1211
     46 H18        -2.9957   -2.3845   -1.1538 H         1 <0>         0.0881
     47 H19        -2.0059   -3.8584   -1.0258 H         1 <0>         0.0844
     48 H20        -2.0849   -5.2273    0.9225 H         1 <0>         0.1221
     49 H21        -3.2470   -5.8266    3.0090 H         1 <0>         0.1192
     50 H22        -4.8459   -4.2526    4.0235 H         1 <0>         0.1191
     51 H23        -5.2821   -2.0790    2.9520 H         1 <0>         0.1200
     52 H24        -4.1138   -1.4762    0.8699 H         1 <0>         0.1298
@<TRIPOS>BOND
     1    1    2 1
     2    1   30 1
     3    1   31 1
     4    1   32 1
     5    2    9 am
     6    2    3 am
     7    3    4 2
     8    3    5 1
     9    5    6 2
    10    5   23 1
    11    6    7 1
    12    6   11 1
    13    7    8 1
    14    7    9 am
    15    9   10 2
    16   11   16 1
    17   11   12 1
    18   12   13 1
    19   12   33 1
    20   12   34 1
    21   13   14 1
    22   13   35 1
    23   13   36 1
    24   14   15 1
    25   14   17 1
    26   15   16 1
    27   15   37 1
    28   15   38 1
    29   16   39 1
    30   16   40 1
    31   17   22 ar
    32   17   18 ar
    33   18   19 ar
    34   18   41 1
    35   19   20 ar
    36   19   42 1
    37   20   21 ar
    38   20   43 1
    39   21   22 ar
    40   21   44 1
    41   22   45 1
    42   23   24 1
    43   23   46 1
    44   23   47 1
    45   24   29 ar
    46   24   25 ar
    47   25   26 ar
    48   25   48 1
    49   26   27 ar
    50   26   49 1
    51   27   28 ar
    52   27   50 1
    53   28   29 ar
    54   28   51 1
    55   29   52 1
@<TRIPOS>MOLECULE
CHEMBL409835
   68    73     0     0     0
SMALL
USER_CHARGES

@<TRIPOS>ATOM
      1 C1         -1.2927    0.0131    0.9048 C.ar      1 <0>        -0.0496
      2 C2         -0.4400    0.8921    0.2635 C.ar      1 <0>        -0.1331
      3 C3          0.8428    0.4951   -0.0646 C.ar      1 <0>        -0.0279
      4 C4          1.2731   -0.7806    0.2490 C.ar      1 <0>        -0.7059
      5 C5          0.4207   -1.6592    0.8911 C.ar      1 <0>        -0.0278
      6 C6         -0.8626   -1.2627    1.2179 C.ar      1 <0>        -0.1323
      7 S1          2.9079   -1.2869   -0.1702 S.o2      1 <0>         2.6640
      8 O1          2.8134   -2.6306   -0.6227 O.2       1 <0>        -0.9163
      9 O2          3.4614   -0.2509   -0.9700 O.2       1 <0>        -0.9294
     10 N1          3.7852   -1.3209    1.2339 N.pl3     1 <0>        -1.0101
     11 C7          4.7342   -0.2427    1.5292 C.3       1 <0>        -0.0143
     12 C8          5.8573   -0.7930    2.4174 C.3       1 <0>        -0.0980
     13 C9          5.2311   -1.3317    3.6859 C.2       1 <0>        -0.1265
     14 C10         5.8979   -1.2239    4.8348 C.2       1 <0>        -0.0608
     15 C11         5.2748   -1.7998    6.0375 C.2       1 <0>         0.0896
     16 C12         4.2085   -2.6862    5.9273 C.2       1 <0>        -0.2259
     17 C13         3.8356   -3.0554    7.2043 C.2       1 <0>         0.0718
     18 N2          4.6267   -2.4497    8.0622 N.2       1 <0>        -0.2681
     19 N3          5.5493   -1.6623    7.3520 N.pl3     1 <0>        -0.2895
     20 C14         6.5683   -0.8771    7.9074 C.ar      1 <0>         0.1236
     21 C15         7.7801   -0.7395    7.2434 C.ar      1 <0>        -0.1006
     22 C16         8.7832    0.0348    7.7925 C.ar      1 <0>        -0.1314
     23 C17         8.5812    0.6737    9.0045 C.ar      1 <0>         0.1135
     24 C18         7.3733    0.5376    9.6683 C.ar      1 <0>        -0.1317
     25 C19         6.3657   -0.2311    9.1197 C.ar      1 <0>        -0.0728
     26 F1          9.5638    1.4303    9.5403 F         1 <0>        -0.1261
     27 C20         3.6632   -3.0910    4.5830 C.3       1 <0>        -0.0258
     28 C21         3.8497   -1.9270    3.6070 C.3       1 <0>        -0.0313
     29 C22         3.6065   -2.4253    2.1806 C.3       1 <0>         0.1030
     30 C23         2.8160   -0.8419    3.9149 C.3       1 <0>        -0.0031
     31 N4          3.0151    0.2958    3.0071 N.4       1 <0>        -0.4088
     32 C24         4.1308    1.1173    3.4919 C.3       1 <0>        -0.0472
     33 C25         4.3949    2.2580    2.5069 C.3       1 <0>        -0.1694
     34 C26         3.1368    3.1228    2.3865 C.3       1 <0>        -0.1361
     35 C27         1.9627    2.2408    1.9518 C.3       1 <0>        -0.1602
     36 C28         1.7887    1.1007    2.9575 C.3       1 <0>        -0.0242
     37 H1         -2.2935    0.3247    1.1651 H         1 <0>         0.1419
     38 H2         -0.7762    1.8887    0.0185 H         1 <0>         0.1439
     39 H3          1.5088    1.1816   -0.5663 H         1 <0>         0.1504
     40 H4          0.7567   -2.6560    1.1358 H         1 <0>         0.1412
     41 H5         -1.5287   -1.9493    1.7192 H         1 <0>         0.1435
     42 H6          5.1574    0.1355    0.5987 H         1 <0>         0.1307
     43 H7          4.2188    0.5637    2.0510 H         1 <0>         0.1306
     44 H8          6.3801   -1.5946    1.8956 H         1 <0>         0.1181
     45 H9          6.5575    0.0055    2.6627 H         1 <0>         0.1137
     46 H10         6.8587   -0.7331    4.8815 H         1 <0>         0.1495
     47 H11         3.0293   -3.7284    7.4562 H         1 <0>         0.1963
     48 H12         7.9382   -1.2379    6.2984 H         1 <0>         0.1406
     49 H13         9.7259    0.1418    7.2766 H         1 <0>         0.1518
     50 H14         7.2178    1.0364   10.6135 H         1 <0>         0.1519
     51 H15         5.4223   -0.3333    9.6355 H         1 <0>         0.1469
     52 H16         4.2030   -3.9646    4.2175 H         1 <0>         0.1035
     53 H17         2.6026   -3.3254    4.6741 H         1 <0>         0.1007
     54 H18         2.5910   -2.8129    2.0989 H         1 <0>         0.1053
     55 H19         4.3174   -3.2191    1.9509 H         1 <0>         0.1124
     56 H20         1.8131   -1.2458    3.7767 H         1 <0>         0.1355
     57 H21         2.9347   -0.5090    4.9460 H         1 <0>         0.1340
     58 H22         3.8788    1.5317    4.4681 H         1 <0>         0.1316
     59 H23         5.0246    0.4997    3.5802 H         1 <0>         0.1554
     60 H24         5.2224    2.8678    2.8696 H         1 <0>         0.1212
     61 H25         4.6472    1.8446    1.5304 H         1 <0>         0.1001
     62 H26         2.9133    3.5775    3.3516 H         1 <0>         0.0862
     63 H27         3.3008    3.9035    1.6437 H         1 <0>         0.1002
     64 H28         1.0517    2.8383    1.9178 H         1 <0>         0.1179
     65 H29         2.1646    1.8271    0.9638 H         1 <0>         0.0880
     66 H30         0.9535    0.4709    2.6511 H         1 <0>         0.1245
     67 H31         1.5867    1.5155    3.9450 H         1 <0>         0.1293
     68 H32         3.2292   -0.0466    2.0824 H         1 <0>         0.4219
@<TRIPOS>BOND
     1    1    6 ar
     2    1    2 ar
     3    1   37 1
     4    2    3 ar
     5    2   38 1
     6    3    4 ar
     7    3   39 1
     8    4    5 ar
     9    4    7 1
    10    5    6 ar
    11    5   40 1
    12    6   41 1
    13    7    8 2
    14    7    9 2
    15    7   10 1
    16   10   29 1
    17   10   11 1
    18   11   12 1
    19   11   42 1
    20   11   43 1
    21   12   13 1
    22   12   44 1
    23   12   45 1
    24   13   28 1
    25   13   14 2
    26   14   15 1
    27   14   46 1
    28   15   19 1
    29   15   16 2
    30   16   17 1
    31   16   27 1
    32   17   18 2
    33   17   47 1
    34   18   19 1
    35   19   20 1
    36   20   25 ar
    37   20   21 ar
    38   21   22 ar
    39   21   48 1
    40   22   23 ar
    41   22   49 1
    42   23   24 ar
    43   23   26 1
    44   24   25 ar
    45   24   50 1
    46   25   51 1
    47   27   28 1
    48   27   52 1
    49   27   53 1
    50   28   29 1
    51   28   30 1
    52   29   54 1
    53   29   55 1
    54   30   31 1
    55   30   56 1
    56   30   57 1
    57   31   36 1
    58   31   32 1
    59   31   68 1
    60   32   33 1
    61   32   58 1
    62   32   59 1
    63   33   34 1
    64   33   60 1
    65   33   61 1
    66   34   35 1
    67   34   62 1
    68   34   63 1
    69   35   36 1
    70   35   64 1
    71   35   65 1
    72   36   66 1
    73   36   67 1
@<TRIPOS>MOLECULE
CHEMBL219207
   51    53     0     0     0
SMALL
USER_CHARGES

@<TRIPOS>ATOM
      1 C1          0.8984   -0.2790    0.9038 C.3       1 <0>        -0.1579
      2 C2         -0.0820   -0.5815   -0.2312 C.3       1 <0>        -0.0171
      3 C3          0.2802   -1.9217   -0.8744 C.3       1 <0>        -0.1365
      4 C4         -1.5042   -0.6523    0.3286 C.3       1 <0>        -0.1523
      5 C5         -1.6548    0.3582    1.4675 C.3       1 <0>         0.0786
      6 C6         -3.0353    0.2021    2.1086 C.3       1 <0>         0.0624
      7 N1         -3.2152    1.2299    3.1369 N.pl3     1 <0>        -0.4994
      8 C7         -2.6899    1.0303    4.3698 C.2       1 <0>         0.1837
      9 C8         -2.8147    1.9314    5.3661 C.2       1 <0>        -0.3111
     10 C9         -3.5157    3.1402    5.1457 C.2       1 <0>         0.4173
     11 O1         -3.6397    3.9679    6.0335 O.2       1 <0>        -0.4965
     12 C10        -4.0907    3.3665    3.8081 C.ar      1 <0>        -0.1968
     13 C11        -3.9092    2.3776    2.8251 C.ar      1 <0>         0.2075
     14 C12        -4.4406    2.5747    1.5541 C.ar      1 <0>        -0.1916
     15 C13        -5.1303    3.7345    1.2748 C.ar      1 <0>        -0.0500
     16 C14        -5.3010    4.7091    2.2478 C.ar      1 <0>        -0.1611
     17 C15        -4.7969    4.5304    3.5063 C.ar      1 <0>        -0.0274
     18 C16        -1.5072    1.7767    0.9136 C.3       1 <0>         0.4629
     19 F1         -2.4271    1.9709   -0.1224 F         1 <0>        -0.1700
     20 F2         -1.7508    2.7032    1.9332 F         1 <0>        -0.1655
     21 F3         -0.2088    1.9532    0.4235 F         1 <0>        -0.1466
     22 O2         -0.6441    0.1229    2.4499 O.3       1 <0>        -0.5179
     23 C17        -0.0037    0.5103   -1.2670 C.ar      1 <0>        -0.0955
     24 C18        -1.1446    0.9119   -1.9352 C.ar      1 <0>        -0.0966
     25 C19        -1.0747    1.9133   -2.8851 C.ar      1 <0>        -0.1516
     26 C20         0.1392    2.5166   -3.1701 C.ar      1 <0>         0.1075
     27 C21         1.2837    2.1172   -2.5033 C.ar      1 <0>        -0.1783
     28 C22         1.2128    1.1161   -1.5458 C.ar      1 <0>         0.1458
     29 O3          2.3345    0.7254   -0.8855 O.3       1 <0>        -0.4793
     30 F4          0.2057    3.4947   -4.0997 F         1 <0>        -0.1366
     31 H1          1.9200   -0.3931    0.5414 H         1 <0>         0.0691
     32 H2          0.7480    0.7433    1.2509 H         1 <0>         0.0945
     33 H3          0.7255   -0.9716    1.7275 H         1 <0>         0.0534
     34 H4          0.1390   -2.7228   -0.1489 H         1 <0>         0.0634
     35 H5         -0.3622   -2.0958   -1.7376 H         1 <0>         0.0573
     36 H6          1.3218   -1.9011   -1.1948 H         1 <0>         0.0593
     37 H7         -2.2177   -0.4183   -0.4614 H         1 <0>         0.0972
     38 H8         -1.6965   -1.6566    0.7061 H         1 <0>         0.1004
     39 H9         -3.8051    0.3133    1.3450 H         1 <0>         0.1179
     40 H10        -3.1150   -0.7851    2.5637 H         1 <0>         0.1195
     41 H11        -2.1509    0.1145    4.5625 H         1 <0>         0.1585
     42 H12        -2.3791    1.7294    6.3335 H         1 <0>         0.1504
     43 H13        -4.3127    1.8222    0.7900 H         1 <0>         0.1336
     44 H14        -5.5420    3.8868    0.2881 H         1 <0>         0.1314
     45 H15        -5.8440    5.6123    2.0117 H         1 <0>         0.1305
     46 H16        -4.9341    5.2925    4.2591 H         1 <0>         0.1381
     47 H17        -0.6772   -0.7592    2.8448 H         1 <0>         0.3901
     48 H18        -2.0920    0.4425   -1.7151 H         1 <0>         0.1394
     49 H19        -1.9676    2.2257   -3.4062 H         1 <0>         0.1372
     50 H20         2.2304    2.5871   -2.7251 H         1 <0>         0.1405
     51 H21         2.8167    0.0083   -1.3196 H         1 <0>         0.3879
@<TRIPOS>BOND
     1    1    2 1
     2    1   31 1
     3    1   32 1
     4    1   33 1
     5    2    3 1
     6    2    4 1
     7    2   23 1
     8    3   34 1
     9    3   35 1
    10    3   36 1
    11    4    5 1
    12    4   37 1
    13    4   38 1
    14    5    6 1
    15    5   18 1
    16    5   22 1
    17    6    7 1
    18    6   39 1
    19    6   40 1
    20    7   13 1
    21    7    8 1
    22    8    9 2
    23    8   41 1
    24    9   10 1
    25    9   42 1
    26   10   11 2
    27   10   12 1
    28   12   17 ar
    29   12   13 ar
    30   13   14 ar
    31   14   15 ar
    32   14   43 1
    33   15   16 ar
    34   15   44 1
    35   16   17 ar
    36   16   45 1
    37   17   46 1
    38   18   19 1
    39   18   20 1
    40   18   21 1
    41   22   47 1
    42   23   28 ar
    43   23   24 ar
    44   24   25 ar
    45   24   48 1
    46   25   26 ar
    47   25   49 1
    48   26   27 ar
    49   26   30 1
    50   27   28 ar
    51   27   50 1
    52   28   29 1
    53   29   51 1
@<TRIPOS>MOLECULE
CHEMBL219207__1
   51    53     0     0     0
SMALL
USER_CHARGES

@<TRIPOS>ATOM
      1 C1          0.2439    0.4764   -1.5469 C.3       1 <0>        -0.1383
      2 C2         -0.1067    0.6107   -0.0637 C.3       1 <0>        -0.0128
      3 C3         -0.2340    2.0918    0.2982 C.3       1 <0>        -0.1648
      4 C4         -1.4343   -0.0978    0.2127 C.3       1 <0>        -0.1562
      5 C5         -2.1375    0.5784    1.3913 C.3       1 <0>         0.0778
      6 C6         -3.5128   -0.0591    1.5986 C.3       1 <0>         0.0624
      7 N1         -4.1862    0.5884    2.7271 N.pl3     1 <0>        -0.4991
      8 C7         -4.0077    0.0932    3.9756 C.2       1 <0>         0.1779
      9 C8         -4.5943    0.6364    5.0623 C.2       1 <0>        -0.3095
     10 C9         -5.4339    1.7667    4.9248 C.2       1 <0>         0.4176
     11 O1         -5.9737    2.2728    5.8949 O.2       1 <0>        -0.4947
     12 C10        -5.6343    2.3127    3.5710 C.ar      1 <0>        -0.1961
     13 C11        -4.9804    1.6887    2.4937 C.ar      1 <0>         0.2080
     14 C12        -5.1532    2.1922    1.2079 C.ar      1 <0>        -0.1793
     15 C13        -5.9553    3.2948    1.0086 C.ar      1 <0>        -0.0528
     16 C14        -6.5933    3.9094    2.0768 C.ar      1 <0>        -0.1598
     17 C15        -6.4461    3.4239    3.3466 C.ar      1 <0>        -0.0260
     18 C16        -1.2968    0.4002    2.6572 C.3       1 <0>         0.4616
     19 F1         -0.0195    0.9307    2.4472 F         1 <0>        -0.1467
     20 F2         -1.9101    1.0687    3.7222 F         1 <0>        -0.1623
     21 F3         -1.1922   -0.9617    2.9597 F         1 <0>        -0.1711
     22 O2         -2.2950    1.9718    1.1163 O.3       1 <0>        -0.5148
     23 C17         0.9810   -0.0181    0.7685 C.ar      1 <0>        -0.0811
     24 C18         0.7209   -1.1660    1.4924 C.ar      1 <0>        -0.1183
     25 C19         1.7174   -1.7442    2.2558 C.ar      1 <0>        -0.1480
     26 C20         2.9792   -1.1743    2.2975 C.ar      1 <0>         0.1041
     27 C21         3.2435   -0.0251    1.5741 C.ar      1 <0>        -0.1730
     28 C22         2.2451    0.5523    0.8034 C.ar      1 <0>         0.1352
     29 O3          2.5035    1.6783    0.0877 O.3       1 <0>        -0.4872
     30 F4          3.9518   -1.7405    3.0450 F         1 <0>        -0.1367
     31 H1          1.1410    1.0568   -1.7622 H         1 <0>         0.0747
     32 H2          0.4238   -0.5722   -1.7843 H         1 <0>         0.0547
     33 H3         -0.5834    0.8488   -2.1510 H         1 <0>         0.0590
     34 H4         -1.0677    2.5296   -0.2507 H         1 <0>         0.0652
     35 H5         -0.4123    2.1901    1.3690 H         1 <0>         0.0949
     36 H6          0.6874    2.6108    0.0341 H         1 <0>         0.0530
     37 H7         -2.0688   -0.0385   -0.6716 H         1 <0>         0.1021
     38 H8         -1.2446   -1.1437    0.4543 H         1 <0>         0.1002
     39 H9         -4.1118    0.0678    0.6967 H         1 <0>         0.1227
     40 H10        -3.3928   -1.1220    1.8084 H         1 <0>         0.1171
     41 H11        -3.3716   -0.7699    4.1058 H         1 <0>         0.1548
     42 H12        -4.4230    0.2076    6.0386 H         1 <0>         0.1508
     43 H13        -4.6606    1.7211    0.3702 H         1 <0>         0.1256
     44 H14        -6.0885    3.6851    0.0104 H         1 <0>         0.1322
     45 H15        -7.2180    4.7729    1.9026 H         1 <0>         0.1305
     46 H16        -6.9461    3.9065    4.1734 H         1 <0>         0.1381
     47 H17        -2.8187    2.1599    0.3255 H         1 <0>         0.3892
     48 H18        -0.2624   -1.6117    1.4619 H         1 <0>         0.1492
     49 H19         1.5119   -2.6414    2.8208 H         1 <0>         0.1373
     50 H20         4.2271    0.4198    1.6062 H         1 <0>         0.1409
     51 H21         2.3360    2.4987    0.5714 H         1 <0>         0.3916
@<TRIPOS>BOND
     1    1    2 1
     2    1   31 1
     3    1   32 1
     4    1   33 1
     5    2    3 1
     6    2    4 1
     7    2   23 1
     8    3   34 1
     9    3   35 1
    10    3   36 1
    11    4    5 1
    12    4   37 1
    13    4   38 1
    14    5    6 1
    15    5   18 1
    16    5   22 1
    17    6    7 1
    18    6   39 1
    19    6   40 1
    20    7   13 1
    21    7    8 1
    22    8    9 2
    23    8   41 1
    24    9   10 1
    25    9   42 1
    26   10   11 2
    27   10   12 1
    28   12   17 ar
    29   12   13 ar
    30   13   14 ar
    31   14   15 ar
    32   14   43 1
    33   15   16 ar
    34   15   44 1
    35   16   17 ar
    36   16   45 1
    37   17   46 1
    38   18   19 1
    39   18   20 1
    40   18   21 1
    41   22   47 1
    42   23   28 ar
    43   23   24 ar
    44   24   25 ar
    45   24   48 1
    46   25   26 ar
    47   25   49 1
    48   26   27 ar
    49   26   30 1
    50   27   28 ar
    51   27   50 1
    52   28   29 1
    53   29   51 1
@<TRIPOS>MOLECULE
CHEMBL303094
   48    52     0     0     0
SMALL
USER_CHARGES

@<TRIPOS>ATOM
      1 C1          1.1343    1.5485    1.0668 C.3       1 <0>        -0.6379
      2 S1          0.9010   -0.2346    0.8283 S.o2      1 <0>         2.5244
      3 O1          1.6100   -0.9586    1.8245 O.2       1 <0>        -1.0270
      4 O2         -0.4657   -0.5180    0.5618 O.2       1 <0>        -1.0267
      5 N1          1.6882   -0.5813   -0.5867 N.2       1 <0>        -1.0909
      6 C2          1.7063   -1.8900   -1.0730 C.ar      1 <0>         0.3014
      7 C3          1.0574   -2.8986   -0.3696 C.ar      1 <0>        -0.2512
      8 C4          1.0813   -4.1954   -0.8413 C.ar      1 <0>        -0.0476
      9 C5          1.7593   -4.4871   -2.0184 C.ar      1 <0>        -0.1726
     10 C6          2.3926   -3.4684   -2.7387 C.ar      1 <0>        -0.0677
     11 C7          2.3685   -2.1776   -2.2620 C.ar      1 <0>        -0.1618
     12 C8          3.0607   -3.7996   -4.0472 C.3       1 <0>         0.1864
     13 O3          3.5559   -5.1371   -4.0313 O.3       1 <0>        -0.3090
     14 C9          2.7397   -6.1267   -3.5881 C.ar      1 <0>         0.1103
     15 C10         1.8276   -5.8618   -2.5604 C.ar      1 <0>        -0.0322
     16 C11         1.0034   -6.8838   -2.0723 C.ar      1 <0>        -0.0061
     17 C12         1.0850   -8.1580   -2.6389 C.ar      1 <0>        -0.1109
     18 C13         1.9749   -8.4016   -3.6648 C.ar      1 <0>        -0.1156
     19 C14         2.7998   -7.3955   -4.1388 C.ar      1 <0>        -0.1282
     20 C15         0.0583   -6.6170   -0.9698 C.2       1 <0>        -0.0981
     21 C16         0.0045   -7.1824    0.2771 C.2       1 <0>        -0.1518
     22 C17        -0.9784   -6.7693    1.1492 C.2       1 <0>        -0.1623
     23 C18        -1.8610   -5.8181    0.7490 C.2       1 <0>        -0.1837
     24 S2         -1.3070   -5.4681   -0.9115 S.3       1 <0>         0.0801
     25 C19         4.2066   -2.8478   -4.2753 C.ar      1 <0>        -0.0672
     26 C20         5.4476   -3.1165   -3.7289 C.ar      1 <0>        -0.0867
     27 C21         6.4987   -2.2435   -3.9382 C.ar      1 <0>        -0.1230
     28 C22         6.3089   -1.1019   -4.6942 C.ar      1 <0>        -0.1204
     29 C23         5.0681   -0.8336   -5.2414 C.ar      1 <0>        -0.1205
     30 C24         4.0181   -1.7088   -5.0357 C.ar      1 <0>        -0.1031
     31 H1          2.1995    1.7698    1.1334 H         1 <0>         0.1156
     32 H2          0.7032    2.0874    0.2231 H         1 <0>         0.1157
     33 H3          0.6404    1.8596    1.9873 H         1 <0>         0.1020
     34 H4          0.5346   -2.6672    0.5466 H         1 <0>         0.1046
     35 H5          0.5757   -4.9799   -0.2978 H         1 <0>         0.1246
     36 H6          2.8662   -1.3899   -2.8081 H         1 <0>         0.1202
     37 H7          2.3387   -3.6930   -4.8568 H         1 <0>         0.0806
     38 H8          0.4516   -8.9528   -2.2735 H         1 <0>         0.1235
     39 H9          2.0284   -9.3872   -4.1030 H         1 <0>         0.1269
     40 H10         3.4926   -7.6014   -4.9413 H         1 <0>         0.1283
     41 H11         0.7187   -7.9377    0.5704 H         1 <0>         0.1335
     42 H12        -1.0465   -7.1968    2.1386 H         1 <0>         0.1321
     43 H13        -2.6840   -5.3824    1.2962 H         1 <0>         0.1843
     44 H14         5.5958   -4.0085   -3.1382 H         1 <0>         0.1248
     45 H15         7.4681   -2.4531   -3.5107 H         1 <0>         0.1197
     46 H16         7.1299   -0.4194   -4.8571 H         1 <0>         0.1181
     47 H17         4.9198    0.0585   -5.8318 H         1 <0>         0.1215
     48 H18         3.0497   -1.5011   -5.4662 H         1 <0>         0.1238
@<TRIPOS>BOND
     1    1    2 1
     2    1   31 1
     3    1   32 1
     4    1   33 1
     5    2    3 2
     6    2    4 2
     7    2    5 1
     8    5    6 1
     9    6   11 ar
    10    6    7 ar
    11    7    8 ar
    12    7   34 1
    13    8    9 ar
    14    8   35 1
    15    9   15 1
    16    9   10 ar
    17   10   11 ar
    18   10   12 1
    19   11   36 1
    20   12   13 1
    21   12   25 1
    22   12   37 1
    23   13   14 1
    24   14   19 ar
    25   14   15 ar
    26   15   16 ar
    27   16   17 ar
    28   16   20 1
    29   17   18 ar
    30   17   38 1
    31   18   19 ar
    32   18   39 1
    33   19   40 1
    34   20   24 1
    35   20   21 2
    36   21   22 1
    37   21   41 1
    38   22   23 2
    39   22   42 1
    40   23   24 1
    41   23   43 1
    42   25   30 ar
    43   25   26 ar
    44   26   27 ar
    45   26   44 1
    46   27   28 ar
    47   27   45 1
    48   28   29 ar
    49   28   46 1
    50   29   30 ar
    51   29   47 1
    52   30   48 1
@<TRIPOS>MOLECULE
CHEMBL303094__1
   48    52     0     0     0
SMALL
USER_CHARGES

@<TRIPOS>ATOM
      1 C1          1.1343    1.5485    1.0668 C.3       1 <0>        -0.6379
      2 S1          0.9010   -0.2346    0.8283 S.o2      1 <0>         2.5249
      3 O1          1.6100   -0.9586    1.8245 O.2       1 <0>        -1.0269
      4 O2         -0.4657   -0.5180    0.5618 O.2       1 <0>        -1.0263
      5 N1          1.6882   -0.5813   -0.5867 N.2       1 <0>        -1.0923
      6 C2          1.7063   -1.8900   -1.0730 C.ar      1 <0>         0.3026
      7 C3          1.0574   -2.8986   -0.3696 C.ar      1 <0>        -0.2504
      8 C4          1.0813   -4.1954   -0.8413 C.ar      1 <0>        -0.0474
      9 C5          1.7593   -4.4871   -2.0184 C.ar      1 <0>        -0.1691
     10 C6          2.3926   -3.4684   -2.7387 C.ar      1 <0>        -0.0628
     11 C7          2.3685   -2.1776   -2.2620 C.ar      1 <0>        -0.1655
     12 C8          3.0607   -3.7996   -4.0472 C.3       1 <0>         0.1840
     13 O3          3.5559   -5.1371   -4.0313 O.3       1 <0>        -0.3042
     14 C9          2.7397   -6.1267   -3.5881 C.ar      1 <0>         0.1125
     15 C10         1.8276   -5.8618   -2.5604 C.ar      1 <0>        -0.0329
     16 C11         1.0034   -6.8838   -2.0723 C.ar      1 <0>        -0.0061
     17 C12         1.0850   -8.1580   -2.6389 C.ar      1 <0>        -0.1122
     18 C13         1.9749   -8.4016   -3.6648 C.ar      1 <0>        -0.1148
     19 C14         2.7998   -7.3955   -4.1388 C.ar      1 <0>        -0.1329
     20 C15         0.0583   -6.6170   -0.9698 C.2       1 <0>        -0.0989
     21 C16         0.0045   -7.1824    0.2771 C.2       1 <0>        -0.1514
     22 C17        -0.9784   -6.7693    1.1492 C.2       1 <0>        -0.1623
     23 C18        -1.8610   -5.8181    0.7490 C.2       1 <0>        -0.1841
     24 S2         -1.3070   -5.4681   -0.9115 S.3       1 <0>         0.0815
     25 C19         2.0625   -3.6522   -5.1665 C.ar      1 <0>        -0.1001
     26 C20         1.1450   -4.6568   -5.4112 C.ar      1 <0>        -0.1058
     27 C21         0.2294   -4.5216   -6.4379 C.ar      1 <0>        -0.1206
     28 C22         0.2309   -3.3816   -7.2197 C.ar      1 <0>        -0.1222
     29 C23         1.1477   -2.3765   -6.9744 C.ar      1 <0>        -0.1222
     30 C24         2.0606   -2.5099   -5.9449 C.ar      1 <0>        -0.1018
     31 H1          2.1995    1.7698    1.1334 H         1 <0>         0.1158
     32 H2          0.7032    2.0874    0.2231 H         1 <0>         0.1157
     33 H3          0.6404    1.8596    1.9873 H         1 <0>         0.1021
     34 H4          0.5346   -2.6672    0.5466 H         1 <0>         0.1048
     35 H5          0.5757   -4.9799   -0.2978 H         1 <0>         0.1248
     36 H6          2.8662   -1.3899   -2.8081 H         1 <0>         0.1170
     37 H7          3.8895   -3.1111   -4.2122 H         1 <0>         0.1272
     38 H8          0.4516   -8.9528   -2.2735 H         1 <0>         0.1238
     39 H9          2.0284   -9.3872   -4.1030 H         1 <0>         0.1272
     40 H10         3.4926   -7.6014   -4.9413 H         1 <0>         0.1288
     41 H11         0.7187   -7.9377    0.5704 H         1 <0>         0.1336
     42 H12        -1.0465   -7.1968    2.1386 H         1 <0>         0.1321
     43 H13        -2.6840   -5.3824    1.2962 H         1 <0>         0.1842
     44 H14         1.1438   -5.5475   -4.8004 H         1 <0>         0.1271
     45 H15        -0.4869   -5.3069   -6.6295 H         1 <0>         0.1185
     46 H16        -0.4840   -3.2763   -8.0223 H         1 <0>         0.1178
     47 H17         1.1491   -1.4860   -7.5854 H         1 <0>         0.1206
     48 H18         2.7745   -1.7230   -5.7509 H         1 <0>         0.1245
@<TRIPOS>BOND
     1    1    2 1
     2    1   31 1
     3    1   32 1
     4    1   33 1
     5    2    3 2
     6    2    4 2
     7    2    5 1
     8    5    6 1
     9    6   11 ar
    10    6    7 ar
    11    7    8 ar
    12    7   34 1
    13    8    9 ar
    14    8   35 1
    15    9   15 1
    16    9   10 ar
    17   10   11 ar
    18   10   12 1
    19   11   36 1
    20   12   13 1
    21   12   25 1
    22   12   37 1
    23   13   14 1
    24   14   19 ar
    25   14   15 ar
    26   15   16 ar
    27   16   17 ar
    28   16   20 1
    29   17   18 ar
    30   17   38 1
    31   18   19 ar
    32   18   39 1
    33   19   40 1
    34   20   24 1
    35   20   21 2
    36   21   22 1
    37   21   41 1
    38   22   23 2
    39   22   42 1
    40   23   24 1
    41   23   43 1
    42   25   30 ar
    43   25   26 ar
    44   26   27 ar
    45   26   44 1
    46   27   28 ar
    47   27   45 1
    48   28   29 ar
    49   28   46 1
    50   29   30 ar
    51   29   47 1
    52   30   48 1
@<TRIPOS>MOLECULE
CHEMBL141524
   60    64     0     0     0
SMALL
USER_CHARGES

@<TRIPOS>ATOM
      1 C1          0.0395    1.2704   -0.0201 C.3       1 <0>        -0.1218
      2 C2         -0.0098   -0.2336    0.0684 C.2       1 <0>        -0.0560
      3 C3         -0.1179   -0.9028   -1.0806 C.2       1 <0>        -0.1799
      4 C4         -0.1444   -2.4050   -1.1037 C.3       1 <0>         0.2136
      5 N1          0.6400   -2.9181    0.0254 N.pl3     1 <0>        -0.7347
      6 C5          0.5011   -2.3095    1.2721 C.ar      1 <0>         0.2220
      7 C6          0.0724   -0.9632    1.3416 C.ar      1 <0>        -0.0974
      8 C7         -0.3391   -0.4785    2.5762 C.ar      1 <0>        -0.0552
      9 C8          0.0976   -1.1368    3.7350 C.ar      1 <0>        -0.0757
     10 C9          0.6860   -2.3927    3.6517 C.ar      1 <0>        -0.0454
     11 C10         0.8679   -2.9869    2.4188 C.ar      1 <0>        -0.1878
     12 C11        -0.0334   -0.4472    5.0404 C.ar      1 <0>        -0.1402
     13 C12        -0.9761    0.5880    5.1266 C.ar      1 <0>         0.1734
     14 C13        -1.1504    1.2709    6.3185 C.ar      1 <0>        -0.1838
     15 C14        -0.4074    0.9244    7.4314 C.ar      1 <0>        -0.0462
     16 C15         0.5192   -0.0962    7.3564 C.ar      1 <0>        -0.2411
     17 C16         0.7177   -0.7784    6.1605 C.ar      1 <0>         0.1694
     18 O1          1.6759   -1.7411    6.1190 O.3       1 <0>        -0.3103
     19 C17         2.3881   -2.0002    7.3305 C.3       1 <0>         0.0243
     20 O2         -1.7201    0.8949    4.0472 O.3       1 <0>        -0.3055
     21 C18        -1.2306    0.7216    2.7223 C.3       1 <0>         0.1523
     22 C19        -2.4652    0.5298    1.8393 C.3       1 <0>        -0.0805
     23 C20        -3.3175    1.8001    1.8713 C.3       1 <0>        -0.1140
     24 C21        -4.5521    1.6083    0.9882 C.3       1 <0>        -0.1179
     25 C22        -5.3747    0.4289    1.5109 C.3       1 <0>        -0.1198
     26 C23        -4.5225   -0.8413    1.4788 C.3       1 <0>        -0.1172
     27 C24        -3.2879   -0.6496    2.3619 C.3       1 <0>        -0.1084
     28 C25        -1.5880   -2.8976   -0.9920 C.3       1 <0>        -0.1577
     29 C26         0.4632   -2.9070   -2.4152 C.3       1 <0>        -0.1531
     30 H1          0.5646    1.6684    0.8482 H         1 <0>         0.0646
     31 H2          0.5654    1.5638   -0.9287 H         1 <0>         0.0700
     32 H3         -0.9757    1.6664   -0.0439 H         1 <0>         0.0745
     33 H4         -0.1875   -0.3500   -2.0046 H         1 <0>         0.1229
     34 H5          1.2456   -3.6687   -0.0946 H         1 <0>         0.4017
     35 H6          0.9769   -2.9332    4.5381 H         1 <0>         0.1355
     36 H7          1.2955   -3.9766    2.3510 H         1 <0>         0.1246
     37 H8         -1.8683    2.0759    6.3774 H         1 <0>         0.1333
     38 H9         -0.5531    1.4530    8.3615 H         1 <0>         0.1325
     39 H10         1.0943   -0.3700    8.2289 H         1 <0>         0.1323
     40 H11         3.1215   -2.7882    7.1594 H         1 <0>         0.1011
     41 H12         2.8984   -1.0927    7.6532 H         1 <0>         0.0575
     42 H13         1.6876   -2.3173    8.1030 H         1 <0>         0.0576
     43 H14        -0.7066    1.6248    2.4238 H         1 <0>         0.0834
     44 H15        -2.1516    0.3285    0.8150 H         1 <0>         0.0948
     45 H16        -3.6311    2.0014    2.8956 H         1 <0>         0.0729
     46 H17        -2.7314    2.6403    1.4990 H         1 <0>         0.0608
     47 H18        -5.1592    2.5133    1.0111 H         1 <0>         0.0624
     48 H19        -4.2385    1.4070   -0.0361 H         1 <0>         0.0598
     49 H20        -5.6884    0.6303    2.5352 H         1 <0>         0.0622
     50 H21        -6.2543    0.2923    0.8818 H         1 <0>         0.0594
     51 H22        -5.1086   -1.6816    1.8512 H         1 <0>         0.0600
     52 H23        -4.2089   -1.0427    0.4545 H         1 <0>         0.0590
     53 H24        -2.6807   -1.5545    2.3391 H         1 <0>         0.0584
     54 H25        -3.6015   -0.4482    3.3862 H         1 <0>         0.0695
     55 H26        -2.1689   -2.5133   -1.8304 H         1 <0>         0.0654
     56 H27        -1.6024   -3.9873   -1.0091 H         1 <0>         0.0589
     57 H28        -2.0215   -2.5431   -0.0568 H         1 <0>         0.0592
     58 H29         1.4938   -2.5610   -2.4941 H         1 <0>         0.0627
     59 H30         0.4436   -3.9967   -2.4311 H         1 <0>         0.0631
     60 H31        -0.1150   -2.5210   -3.2548 H         1 <0>         0.0742
@<TRIPOS>BOND
     1    1    2 1
     2    1   30 1
     3    1   31 1
     4    1   32 1
     5    2    7 1
     6    2    3 2
     7    3    4 1
     8    3   33 1
     9    4    5 1
    10    4   28 1
    11    4   29 1
    12    5    6 1
    13    5   34 1
    14    6   11 ar
    15    6    7 ar
    16    7    8 ar
    17    8   21 1
    18    8    9 ar
    19    9   10 ar
    20    9   12 1
    21   10   11 ar
    22   10   35 1
    23   11   36 1
    24   12   17 ar
    25   12   13 ar
    26   13   14 ar
    27   13   20 1
    28   14   15 ar
    29   14   37 1
    30   15   16 ar
    31   15   38 1
    32   16   17 ar
    33   16   39 1
    34   17   18 1
    35   18   19 1
    36   19   40 1
    37   19   41 1
    38   19   42 1
    39   20   21 1
    40   21   22 1
    41   21   43 1
    42   22   27 1
    43   22   23 1
    44   22   44 1
    45   23   24 1
    46   23   45 1
    47   23   46 1
    48   24   25 1
    49   24   47 1
    50   24   48 1
    51   25   26 1
    52   25   49 1
    53   25   50 1
    54   26   27 1
    55   26   51 1
    56   26   52 1
    57   27   53 1
    58   27   54 1
    59   28   55 1
    60   28   56 1
    61   28   57 1
    62   29   58 1
    63   29   59 1
    64   29   60 1
@<TRIPOS>MOLECULE
CHEMBL141524__1
   60    64     0     0     0
SMALL
USER_CHARGES

@<TRIPOS>ATOM
      1 C1          0.0500    1.4297    0.0165 C.3       1 <0>        -0.1215
      2 C2          0.0567   -0.0762    0.0429 C.2       1 <0>        -0.0607
      3 C3         -0.0194   -0.6787   -1.1466 C.2       1 <0>        -0.1780
      4 C4         -0.0075   -2.1741   -1.2740 C.3       1 <0>         0.2128
      5 N1          0.7443   -2.7476   -0.1541 N.pl3     1 <0>        -0.7368
      6 C5          0.5641   -2.2211    1.1248 C.ar      1 <0>         0.2209
      7 C6          0.1512   -0.8754    1.2749 C.ar      1 <0>        -0.0910
      8 C7         -0.1917   -0.4386    2.5455 C.ar      1 <0>        -0.0545
      9 C8          0.0824   -1.2491    3.6616 C.ar      1 <0>        -0.0734
     10 C9          0.6297   -2.5148    3.4966 C.ar      1 <0>        -0.0466
     11 C10         0.8670   -2.9977    2.2266 C.ar      1 <0>        -0.1868
     12 C11        -0.2597   -0.7368    5.0100 C.ar      1 <0>        -0.1215
     13 C12        -1.2436    0.2638    5.0845 C.ar      1 <0>         0.1663
     14 C13        -1.6387    0.7666    6.3076 C.ar      1 <0>        -0.1833
     15 C14        -1.0585    0.2881    7.4694 C.ar      1 <0>        -0.0511
     16 C15        -0.0814   -0.6857    7.4075 C.ar      1 <0>        -0.2332
     17 C16         0.3274   -1.1974    6.1803 C.ar      1 <0>         0.1607
     18 O1          1.3209   -2.1243    6.1600 O.3       1 <0>        -0.3096
     19 C17         1.8560   -2.5297    7.4215 C.3       1 <0>         0.0246
     20 O2         -1.7761    0.7278    3.9236 O.3       1 <0>        -0.3025
     21 C18        -0.8538    0.8837    2.8309 C.3       1 <0>         0.1378
     22 C19         0.1981    1.9147    3.2449 C.3       1 <0>        -0.1094
     23 C20        -0.4979    3.2000    3.6971 C.3       1 <0>        -0.1116
     24 C21         0.5539    4.2311    4.1111 C.3       1 <0>        -0.1170
     25 C22         1.3906    3.6716    5.2635 C.3       1 <0>        -0.1191
     26 C23         2.0866    2.3864    4.8113 C.3       1 <0>        -0.1153
     27 C24         1.0347    1.3553    4.3972 C.3       1 <0>        -0.1438
     28 C25        -1.4420   -2.7053   -1.2566 C.3       1 <0>        -0.1577
     29 C26         0.6624   -2.5695   -2.5924 C.3       1 <0>        -0.1527
     30 H1          0.9286    1.8062    0.5404 H         1 <0>         0.0705
     31 H2          0.0677    1.7750   -1.0172 H         1 <0>         0.0697
     32 H3         -0.8510    1.7977    0.5072 H         1 <0>         0.0707
     33 H4         -0.0913   -0.0655   -2.0333 H         1 <0>         0.1233
     34 H5          1.3607   -3.4860   -0.3000 H         1 <0>         0.4018
     35 H6          0.8524   -3.1405    4.3464 H         1 <0>         0.1356
     36 H7          1.2897   -3.9838    2.0917 H         1 <0>         0.1249
     37 H8         -2.3989    1.5320    6.3617 H         1 <0>         0.1336
     38 H9         -1.3714    0.6784    8.4258 H         1 <0>         0.1320
     39 H10         0.3714   -1.0546    8.3165 H         1 <0>         0.1320
     40 H11         2.6392   -3.2709    7.2627 H         1 <0>         0.1010
     41 H12         2.2741   -1.6634    7.9341 H         1 <0>         0.0572
     42 H13         1.0627   -2.9640    8.0299 H         1 <0>         0.0572
     43 H14        -1.4259    1.2298    1.9812 H         1 <0>         0.1260
     44 H15         0.8473    2.1322    2.3967 H         1 <0>         0.0860
     45 H16        -1.0940    3.5986    2.8761 H         1 <0>         0.0626
     46 H17        -1.1471    2.9826    4.5452 H         1 <0>         0.0701
     47 H18         1.2031    4.4485    3.2629 H         1 <0>         0.0599
     48 H19         0.0581    5.1467    4.4332 H         1 <0>         0.0623
     49 H20         2.1399    4.4062    5.5584 H         1 <0>         0.0587
     50 H21         0.7414    3.4542    6.1116 H         1 <0>         0.0611
     51 H22         2.7358    2.6038    3.9631 H         1 <0>         0.0567
     52 H23         2.6826    1.9878    5.6322 H         1 <0>         0.0581
     53 H24         0.3856    1.1378    5.2454 H         1 <0>         0.0884
     54 H25         1.5306    0.4396    4.0751 H         1 <0>         0.0721
     55 H26        -1.9984   -2.2764   -2.0900 H         1 <0>         0.0659
     56 H27        -1.4284   -3.7913   -1.3493 H         1 <0>         0.0595
     57 H28        -1.9213   -2.4268   -0.3181 H         1 <0>         0.0574
     58 H29         1.6863   -2.1958   -2.6061 H         1 <0>         0.0628
     59 H30         0.6707   -3.6556   -2.6843 H         1 <0>         0.0631
     60 H31         0.1072   -2.1386   -3.4256 H         1 <0>         0.0741
@<TRIPOS>BOND
     1    1    2 1
     2    1   30 1
     3    1   31 1
     4    1   32 1
     5    2    7 1
     6    2    3 2
     7    3    4 1
     8    3   33 1
     9    4    5 1
    10    4   28 1
    11    4   29 1
    12    5    6 1
    13    5   34 1
    14    6   11 ar
    15    6    7 ar
    16    7    8 ar
    17    8   21 1
    18    8    9 ar
    19    9   10 ar
    20    9   12 1
    21   10   11 ar
    22   10   35 1
    23   11   36 1
    24   12   17 ar
    25   12   13 ar
    26   13   14 ar
    27   13   20 1
    28   14   15 ar
    29   14   37 1
    30   15   16 ar
    31   15   38 1
    32   16   17 ar
    33   16   39 1
    34   17   18 1
    35   18   19 1
    36   19   40 1
    37   19   41 1
    38   19   42 1
    39   20   21 1
    40   21   22 1
    41   21   43 1
    42   22   27 1
    43   22   23 1
    44   22   44 1
    45   23   24 1
    46   23   45 1
    47   23   46 1
    48   24   25 1
    49   24   47 1
    50   24   48 1
    51   25   26 1
    52   25   49 1
    53   25   50 1
    54   26   27 1
    55   26   51 1
    56   26   52 1
    57   27   53 1
    58   27   54 1
    59   28   55 1
    60   28   56 1
    61   28   57 1
    62   29   58 1
    63   29   59 1
    64   29   60 1
@<TRIPOS>MOLECULE
CHEMBL1089350
   47    50     0     0     0
SMALL
USER_CHARGES

@<TRIPOS>ATOM
      1 C1         -0.0187    1.5258    0.0104 C.3       1 <0>        -0.1467
      2 C2          0.0021   -0.0041    0.0020 C.3       1 <0>        -0.0538
      3 C3         -1.4117   -0.5257    0.0127 C.2       1 <0>         0.1337
      4 C4         -2.2113   -0.8249    1.1963 C.ar      1 <0>        -0.2316
      5 C5         -1.9797   -0.7447    2.5731 C.ar      1 <0>         0.1433
      6 C6         -3.0116   -1.1284    3.4334 C.ar      1 <0>        -0.2369
      7 C7         -4.2243   -1.5733    2.8891 C.ar      1 <0>         0.2168
      8 N1         -4.4087   -1.6363    1.5919 N.ar      1 <0>        -0.4983
      9 C8         -3.4600   -1.2834    0.7293 C.ar      1 <0>         0.3459
     10 N2         -3.3989   -1.2557   -0.6352 N.pl3     1 <0>        -0.3841
     11 N3         -2.1436   -0.7859   -1.0324 N.2       1 <0>        -0.2318
     12 C9         -4.4811   -1.6510   -1.5402 C.3       1 <0>         0.1076
     13 C10        -2.8270   -1.0664    4.8964 C.2       1 <0>         0.5685
     14 O1         -1.7717   -0.6796    5.3601 O.2       1 <0>        -0.5131
     15 N4         -3.8282   -1.4386    5.7183 N.am      1 <0>        -0.7264
     16 C11        -3.6450   -1.3771    7.1705 C.3       1 <0>         0.1308
     17 C12        -4.9227   -1.8505    7.8663 C.3       1 <0>        -0.1018
     18 C13        -6.0456   -0.8012    7.7247 C.3       1 <0>        -0.0794
     19 C14        -6.8137   -0.8646    9.0275 C.ar      1 <0>        -0.0984
     20 C15        -8.0778   -0.3981    9.3477 C.ar      1 <0>        -0.1071
     21 C16        -8.5804   -0.5717   10.6223 C.ar      1 <0>        -0.1195
     22 C17        -7.8200   -1.2131   11.5824 C.ar      1 <0>        -0.1192
     23 C18        -6.5592   -1.6789   11.2650 C.ar      1 <0>        -0.1066
     24 C19        -6.0534   -1.5058    9.9874 C.ar      1 <0>        -0.0974
     25 C20        -4.7224   -1.9171    9.3953 C.3       1 <0>        -0.0736
     26 Cl1        -0.4576   -0.1867    3.1939 Cl        1 <0>         0.0050
     27 H1          1.0039    1.9031    0.0027 H         1 <0>         0.0718
     28 H2         -0.5459    1.8868   -0.8726 H         1 <0>         0.0603
     29 H3         -0.5289    1.8773    0.9072 H         1 <0>         0.0588
     30 H4          0.5123   -0.3556   -0.8948 H         1 <0>         0.0920
     31 H5          0.5293   -0.3651    0.8851 H         1 <0>         0.0932
     32 H6         -5.0236   -1.8708    3.5518 H         1 <0>         0.1757
     33 H7         -5.1048   -0.7848   -1.7609 H         1 <0>         0.0768
     34 H8         -4.0568   -2.0388   -2.4663 H         1 <0>         0.0935
     35 H9         -5.0867   -2.4237   -1.0666 H         1 <0>         0.0945
     36 H10        -4.6701   -1.7471    5.3483 H         1 <0>         0.3984
     37 H11        -2.8141   -2.0206    7.4595 H         1 <0>         0.0762
     38 H12        -3.4293   -0.3504    7.4663 H         1 <0>         0.0754
     39 H13        -5.2398   -2.8171    7.4746 H         1 <0>         0.0913
     40 H14        -5.6195    0.1923    7.5848 H         1 <0>         0.0848
     41 H15        -6.6974   -1.0551    6.8887 H         1 <0>         0.0763
     42 H16        -8.6723    0.1033    8.5984 H         1 <0>         0.1197
     43 H17        -9.5664   -0.2065   10.8689 H         1 <0>         0.1239
     44 H18        -8.2114   -1.3494   12.5797 H         1 <0>         0.1242
     45 H19        -5.9658   -2.1798   12.0155 H         1 <0>         0.1205
     46 H20        -4.4707   -2.9329    9.6999 H         1 <0>         0.0804
     47 H21        -3.9404   -1.2238    9.7048 H         1 <0>         0.0864
@<TRIPOS>BOND
     1    1    2 1
     2    1   27 1
     3    1   28 1
     4    1   29 1
     5    2    3 1
     6    2   30 1
     7    2   31 1
     8    3   11 2
     9    3    4 1
    10    4    9 ar
    11    4    5 ar
    12    5    6 ar
    13    5   26 1
    14    6    7 ar
    15    6   13 1
    16    7    8 ar
    17    7   32 1
    18    8    9 ar
    19    9   10 1
    20   10   11 1
    21   10   12 1
    22   12   33 1
    23   12   34 1
    24   12   35 1
    25   13   14 2
    26   13   15 am
    27   15   16 1
    28   15   36 1
    29   16   17 1
    30   16   37 1
    31   16   38 1
    32   17   25 1
    33   17   18 1
    34   17   39 1
    35   18   19 1
    36   18   40 1
    37   18   41 1
    38   19   24 ar
    39   19   20 ar
    40   20   21 ar
    41   20   42 1
    42   21   22 ar
    43   21   43 1
    44   22   23 ar
    45   22   44 1
    46   23   24 ar
    47   23   45 1
    48   24   25 1
    49   25   46 1
    50   25   47 1
@<TRIPOS>MOLECULE
CHEMBL230885
   59    62     0     0     0
SMALL
USER_CHARGES

@<TRIPOS>ATOM
      1 C1         -0.2242    1.8780    0.5695 C.3       1 <0>         0.0787
      2 N1         -0.1559    0.4241    0.4031 N.am      1 <0>        -0.5563
      3 C2         -0.5564   -0.3825    1.4056 C.2       1 <0>         0.5575
      4 O1         -0.9740    0.0944    2.4470 O.2       1 <0>        -0.5089
      5 C3         -0.4903   -1.7752    1.2433 C.2       1 <0>        -0.2695
      6 C4         -0.0186   -2.2849    0.0656 C.2       1 <0>         0.4561
      7 N2          0.3791   -1.4258   -0.9299 N.am      1 <0>        -0.6473
      8 H1          0.7144   -1.7811   -1.7679 H         1 <0>         0.4291
      9 C5          0.3009   -0.0943   -0.7513 C.2       1 <0>         0.7012
     10 O2          0.6529    0.6514   -1.6447 O.2       1 <0>        -0.5415
     11 N3          0.0573   -3.6415   -0.1200 N.pl3     1 <0>        -0.6546
     12 C6         -1.1623   -4.4437   -0.2864 C.3       1 <0>         0.1367
     13 C7         -1.0416   -5.2631   -1.5751 C.3       1 <0>        -0.1329
     14 C8          0.2497   -6.0836   -1.5341 C.3       1 <0>        -0.0843
     15 C9          1.4523   -5.1412   -1.4465 C.3       1 <0>        -0.1371
     16 C10         1.3601   -4.3196   -0.1624 C.3       1 <0>         0.1327
     17 C11         0.3566   -6.9296   -2.8045 C.3       1 <0>        -0.1078
     18 C12         1.5813   -7.8415   -2.7083 C.3       1 <0>        -0.0818
     19 C13         1.6866   -8.6748   -3.9596 C.ar      1 <0>        -0.0827
     20 C14         1.0576   -9.9040   -4.0263 C.ar      1 <0>        -0.1188
     21 C15         1.1542  -10.6684   -5.1741 C.ar      1 <0>        -0.1178
     22 C16         1.8793  -10.2033   -6.2552 C.ar      1 <0>        -0.1253
     23 C17         2.5075   -8.9738   -6.1888 C.ar      1 <0>        -0.1180
     24 C18         2.4074   -8.2075   -5.0426 C.ar      1 <0>        -0.1188
     25 C19        -0.9326   -2.6956    2.3516 C.3       1 <0>         0.0015
     26 C20         0.1980   -2.8827    3.3304 C.ar      1 <0>        -0.0756
     27 C21         1.0325   -3.9794    3.2210 C.ar      1 <0>        -0.1161
     28 C22         2.0695   -4.1510    4.1188 C.ar      1 <0>        -0.1242
     29 C23         2.2723   -3.2258    5.1256 C.ar      1 <0>        -0.1239
     30 C24         1.4384   -2.1287    5.2344 C.ar      1 <0>        -0.1212
     31 C25         0.4040   -1.9548    4.3341 C.ar      1 <0>        -0.1065
     32 H2          0.1332    2.3648   -0.3379 H         1 <0>         0.0997
     33 H3         -1.2562    2.1740    0.7582 H         1 <0>         0.0804
     34 H4          0.3993    2.1770    1.4120 H         1 <0>         0.0800
     35 H5         -1.2767   -5.1155    0.5643 H         1 <0>         0.0713
     36 H6         -2.0274   -3.7839   -0.3526 H         1 <0>         0.0792
     37 H7         -1.8963   -5.9340   -1.6611 H         1 <0>         0.0778
     38 H8         -1.0184   -4.5909   -2.4328 H         1 <0>         0.0666
     39 H9          0.2367   -6.7378   -0.6624 H         1 <0>         0.0757
     40 H10         2.3726   -5.7253   -1.4409 H         1 <0>         0.0793
     41 H11         1.4520   -4.4701   -2.3054 H         1 <0>         0.0656
     42 H12         2.1587   -3.5779   -0.1468 H         1 <0>         0.0741
     43 H13         1.4559   -4.9810    0.6987 H         1 <0>         0.0730
     44 H14        -0.5416   -7.5376   -2.9127 H         1 <0>         0.0655
     45 H15         0.4583   -6.2745   -3.6697 H         1 <0>         0.0636
     46 H16         2.4794   -7.2335   -2.6001 H         1 <0>         0.0735
     47 H17         1.4795   -8.4966   -1.8431 H         1 <0>         0.0721
     48 H18         0.4911  -10.2673   -3.1817 H         1 <0>         0.1204
     49 H19         0.6634  -11.6290   -5.2260 H         1 <0>         0.1214
     50 H20         1.9554  -10.8008   -7.1517 H         1 <0>         0.1209
     51 H21         3.0744   -8.6106   -7.0333 H         1 <0>         0.1212
     52 H22         2.8951   -7.2452   -4.9920 H         1 <0>         0.1196
     53 H23        -1.7896   -2.2601    2.8654 H         1 <0>         0.0865
     54 H24        -1.2131   -3.6615    1.9316 H         1 <0>         0.0847
     55 H25         0.8740   -4.7022    2.4343 H         1 <0>         0.1194
     56 H26         2.7210   -5.0082    4.0337 H         1 <0>         0.1185
     57 H27         3.0821   -3.3603    5.8275 H         1 <0>         0.1184
     58 H28         1.5966   -1.4061    6.0213 H         1 <0>         0.1194
     59 H29        -0.2453   -1.0957    4.4168 H         1 <0>         0.1297
@<TRIPOS>BOND
     1    1    2 1
     2    1   32 1
     3    1   33 1
     4    1   34 1
     5    2    9 am
     6    2    3 am
     7    3    4 2
     8    3    5 1
     9    5    6 2
    10    5   25 1
    11    6    7 1
    12    6   11 1
    13    7    8 1
    14    7    9 am
    15    9   10 2
    16   11   16 1
    17   11   12 1
    18   12   13 1
    19   12   35 1
    20   12   36 1
    21   13   14 1
    22   13   37 1
    23   13   38 1
    24   14   15 1
    25   14   17 1
    26   14   39 1
    27   15   16 1
    28   15   40 1
    29   15   41 1
    30   16   42 1
    31   16   43 1
    32   17   18 1
    33   17   44 1
    34   17   45 1
    35   18   19 1
    36   18   46 1
    37   18   47 1
    38   19   24 ar
    39   19   20 ar
    40   20   21 ar
    41   20   48 1
    42   21   22 ar
    43   21   49 1
    44   22   23 ar
    45   22   50 1
    46   23   24 ar
    47   23   51 1
    48   24   52 1
    49   25   26 1
    50   25   53 1
    51   25   54 1
    52   26   31 ar
    53   26   27 ar
    54   27   28 ar
    55   27   55 1
    56   28   29 ar
    57   28   56 1
    58   29   30 ar
    59   29   57 1
    60   30   31 ar
    61   30   58 1
    62   31   59 1
@<TRIPOS>MOLECULE
CHEMBL469944
   50    53     0     0     0
SMALL
USER_CHARGES

@<TRIPOS>ATOM
      1 C1         -0.6331    1.9988    0.5475 C.3       1 <0>        -0.1631
      2 C2         -0.2848    0.5176    0.3881 C.3       1 <0>        -0.1215
      3 C3          0.4420    0.0268    1.6418 C.3       1 <0>        -0.0032
      4 C4         -0.4838    0.1909    2.8453 C.3       1 <0>        -0.1533
      5 C5         -1.7737   -0.5948    2.5879 C.3       1 <0>         0.1090
      6 H1         -2.2682   -0.1979    1.7013 H         1 <0>         0.0647
      7 C6         -1.4511   -2.0732    2.3699 C.3       1 <0>        -0.0415
      8 H2         -2.3732   -2.6191    2.1706 H         1 <0>         0.0880
      9 C7         -0.4990   -2.2317    1.1800 C.3       1 <0>        -0.1081
     10 C8          0.7829   -1.4524    1.4677 C.3       1 <0>        -0.0777
     11 H3          1.2401   -1.8299    2.3823 H         1 <0>         0.0796
     12 C9          1.7750   -1.5818    0.3115 C.3       1 <0>        -0.1179
     13 C10         3.1117   -0.9935    0.7620 C.3       1 <0>        -0.0814
     14 C11         2.9267    0.3623    1.3911 C.ar      1 <0>        -0.0550
     15 C12         1.6971    0.8323    1.8224 C.ar      1 <0>        -0.0688
     16 C13         1.5937    2.0864    2.4080 C.ar      1 <0>        -0.0982
     17 C14         2.7130    2.8708    2.5909 C.ar      1 <0>        -0.1502
     18 C15         3.9537    2.4018    2.1845 C.ar      1 <0>         0.1022
     19 C16         4.0545    1.1548    1.5551 C.ar      1 <0>        -0.1477
     20 O1          5.0628    3.1681    2.3563 O.3       1 <0>        -0.4998
     21 C17        -0.7976   -2.6304    3.6083 C.ar      1 <0>        -0.0690
     22 C18        -0.7786   -1.8872    4.7737 C.ar      1 <0>        -0.1174
     23 C19        -0.1792   -2.3983    5.9097 C.ar      1 <0>        -0.1275
     24 C20         0.4008   -3.6528    5.8803 C.ar      1 <0>        -0.1262
     25 C21         0.3810   -4.3963    4.7151 C.ar      1 <0>        -0.1241
     26 C22        -0.2222   -3.8869    3.5804 C.ar      1 <0>        -0.1210
     27 O2         -2.6425   -0.4623    3.7147 O.3       1 <0>        -0.5567
     28 H4          0.2821    2.5745    0.6857 H         1 <0>         0.0634
     29 H5         -1.1509    2.3485   -0.3456 H         1 <0>         0.0539
     30 H6         -1.2787    2.1288    1.4161 H         1 <0>         0.0540
     31 H7         -1.2000   -0.0581    0.2499 H         1 <0>         0.0731
     32 H8          0.3608    0.3876   -0.4805 H         1 <0>         0.0686
     33 H9          0.0069   -0.1951    3.7388 H         1 <0>         0.0878
     34 H10        -0.7201    1.2460    2.9830 H         1 <0>         0.0718
     35 H11        -0.2617   -3.2863    1.0400 H         1 <0>         0.0751
     36 H12        -0.9711   -1.8387    0.2796 H         1 <0>         0.0745
     37 H13         1.9040   -2.6329    0.0535 H         1 <0>         0.0707
     38 H14         1.4046   -1.0328   -0.5542 H         1 <0>         0.0714
     39 H15         3.5706   -1.6645    1.4881 H         1 <0>         0.0771
     40 H16         3.7698   -0.8996   -0.1018 H         1 <0>         0.0758
     41 H17         0.6275    2.4513    2.7236 H         1 <0>         0.1271
     42 H18         2.6242    3.8453    3.0479 H         1 <0>         0.1271
     43 H19         5.0171    0.7901    1.2282 H         1 <0>         0.1264
     44 H20         5.5089    3.0303    3.2031 H         1 <0>         0.3904
     45 H21        -1.2318   -0.9072    4.7967 H         1 <0>         0.1531
     46 H22        -0.1637   -1.8174    6.8200 H         1 <0>         0.1166
     47 H23         0.8698   -4.0518    6.7676 H         1 <0>         0.1162
     48 H24         0.8345   -5.3762    4.6920 H         1 <0>         0.1176
     49 H25        -0.2409   -4.4694    2.6710 H         1 <0>         0.1178
     50 H26        -2.8972    0.4499    3.9099 H         1 <0>         0.3761
@<TRIPOS>BOND
     1    1    2 1
     2    1   28 1
     3    1   29 1
     4    1   30 1
     5    2    3 1
     6    2   31 1
     7    2   32 1
     8    3   10 1
     9    3   15 1
    10    3    4 1
    11    4    5 1
    12    4   33 1
    13    4   34 1
    14    5    6 1
    15    5    7 1
    16    5   27 1
    17    7    8 1
    18    7    9 1
    19    7   21 1
    20    9   10 1
    21    9   35 1
    22    9   36 1
    23   10   11 1
    24   10   12 1
    25   12   13 1
    26   12   37 1
    27   12   38 1
    28   13   14 1
    29   13   39 1
    30   13   40 1
    31   14   19 ar
    32   14   15 ar
    33   15   16 ar
    34   16   17 ar
    35   16   41 1
    36   17   18 ar
    37   17   42 1
    38   18   19 ar
    39   18   20 1
    40   19   43 1
    41   20   44 1
    42   21   26 ar
    43   21   22 ar
    44   22   23 ar
    45   22   45 1
    46   23   24 ar
    47   23   46 1
    48   24   25 ar
    49   24   47 1
    50   25   26 ar
    51   25   48 1
    52   26   49 1
    53   27   50 1
@<TRIPOS>MOLECULE
CHEMBL195972
   57    62     0     0     0
SMALL
USER_CHARGES

@<TRIPOS>ATOM
      1 C1          0.1030    1.5959   -0.0361 C.3       1 <0>        -0.1518
      2 C2          0.0506    0.0673    0.0013 C.3       1 <0>        -0.0107
      3 C3         -1.4258   -0.3606   -0.0220 C.3       1 <0>        -0.0354
      4 C4         -1.9261   -1.1653    1.1558 C.2       1 <0>        -0.2167
      5 C5         -3.1804   -1.6798    1.4728 C.2       1 <0>         0.0701
      6 N1         -3.0974   -2.3050    2.6208 N.2       1 <0>        -0.2795
      7 N2         -1.7807   -2.2163    3.0882 N.pl3     1 <0>        -0.3210
      8 C6         -1.0551   -1.5089    2.1658 C.2       1 <0>         0.1196
      9 C7          0.3625   -1.1318    2.1292 C.2       1 <0>        -0.1243
     10 C8          0.8937   -0.4040    1.1665 C.2       1 <0>        -0.0474
     11 C9          2.3662   -0.0677    1.1715 C.3       1 <0>        -0.0840
     12 C10         2.9714   -0.5406   -0.1558 C.3       1 <0>        -0.1108
     13 C11         2.1699    0.0461   -1.3189 C.3       1 <0>        -0.1372
     14 C12         0.7259   -0.4565   -1.2667 C.3       1 <0>        -0.1045
     15 H1          0.7204   -1.5464   -1.2577 H         1 <0>         0.0864
     16 C13        -0.0344    0.0475   -2.4951 C.3       1 <0>         0.1912
     17 H2         -1.0893   -0.2101   -2.4004 H         1 <0>         0.1270
     18 C14         0.5307   -0.5965   -3.7348 C.2       1 <0>        -0.1560
     19 C15         0.0429   -1.6370   -4.4254 C.2       1 <0>        -0.1293
     20 C16         0.7530   -2.1043   -5.6069 C.ar      1 <0>        -0.0899
     21 C17         0.4225   -3.1723   -6.4746 C.ar      1 <0>        -0.0752
     22 C18         1.2108   -3.4704   -7.5412 C.ar      1 <0>        -0.1216
     23 C19         2.3618   -2.7447   -7.8187 C.ar      1 <0>        -0.0937
     24 C20         2.7186   -1.6948   -6.9963 C.ar      1 <0>        -0.0791
     25 C21         1.9273   -1.3825   -5.9115 C.ar      1 <0>        -0.1135
     26 S1          2.0026   -0.1512   -4.6364 S.3       1 <0>         0.0370
     27 O1          0.1026    1.4667   -2.5909 O.3       1 <0>        -0.5382
     28 C22        -1.2918   -2.7553    4.2857 C.ar      1 <0>         0.1480
     29 C23         0.0042   -3.2501    4.3474 C.ar      1 <0>        -0.1049
     30 C24         0.4843   -3.7804    5.5287 C.ar      1 <0>        -0.1303
     31 C25        -0.3259   -3.8190    6.6512 C.ar      1 <0>         0.0975
     32 C26        -1.6188   -3.3264    6.5916 C.ar      1 <0>        -0.1318
     33 C27        -2.1008   -2.7901    5.4138 C.ar      1 <0>        -0.0828
     34 F1          0.1457   -4.3382    7.8059 F         1 <0>        -0.1333
     35 H3          1.1130    1.9187   -0.2889 H         1 <0>         0.0618
     36 H4         -0.5951    1.9652   -0.7873 H         1 <0>         0.0889
     37 H5         -0.1714    1.9929    0.9412 H         1 <0>         0.0497
     38 H6         -2.0353    0.5400   -0.0964 H         1 <0>         0.0795
     39 H7         -1.5907   -0.9487   -0.9248 H         1 <0>         0.0717
     40 H8         -4.0727   -1.5798    0.8727 H         1 <0>         0.1905
     41 H9          0.9983   -1.4489    2.9426 H         1 <0>         0.1184
     42 H10         2.4968    1.0098    1.2719 H         1 <0>         0.0846
     43 H11         2.8567   -0.5768    2.0012 H         1 <0>         0.0757
     44 H12         4.0067   -0.2062   -0.2228 H         1 <0>         0.0728
     45 H13         2.9373   -1.6290   -0.2035 H         1 <0>         0.0658
     46 H14         2.1769    1.1339   -1.2505 H         1 <0>         0.0761
     47 H15         2.6249   -0.2582   -2.2615 H         1 <0>         0.0768
     48 H16        -0.8675   -2.1237   -4.1081 H         1 <0>         0.1372
     49 H17        -0.4658   -3.7572   -6.2871 H         1 <0>         0.1258
     50 H18         0.9359   -4.2909   -8.1874 H         1 <0>         0.1286
     51 H19         2.9734   -3.0000   -8.6714 H         1 <0>         0.1355
     52 H20         3.6114   -1.1227   -7.2010 H         1 <0>         0.1318
     53 H21         1.0171    1.7686   -2.6776 H         1 <0>         0.3742
     54 H22         0.6361   -3.2205    3.4721 H         1 <0>         0.1421
     55 H23         1.4921   -4.1657    5.5770 H         1 <0>         0.1471
     56 H24        -2.2492   -3.3577    7.4680 H         1 <0>         0.1470
     57 H25        -3.1075   -2.4016    5.3690 H         1 <0>         0.1446
@<TRIPOS>BOND
     1    1    2 1
     2    1   35 1
     3    1   36 1
     4    1   37 1
     5    2   10 1
     6    2   14 1
     7    2    3 1
     8    3    4 1
     9    3   38 1
    10    3   39 1
    11    4    8 2
    12    4    5 1
    13    5    6 2
    14    5   40 1
    15    6    7 1
    16    7    8 1
    17    7   28 1
    18    8    9 1
    19    9   10 2
    20    9   41 1
    21   10   11 1
    22   11   12 1
    23   11   42 1
    24   11   43 1
    25   12   13 1
    26   12   44 1
    27   12   45 1
    28   13   14 1
    29   13   46 1
    30   13   47 1
    31   14   15 1
    32   14   16 1
    33   16   17 1
    34   16   18 1
    35   16   27 1
    36   18   26 1
    37   18   19 2
    38   19   20 1
    39   19   48 1
    40   20   25 ar
    41   20   21 ar
    42   21   22 ar
    43   21   49 1
    44   22   23 ar
    45   22   50 1
    46   23   24 ar
    47   23   51 1
    48   24   25 ar
    49   24   52 1
    50   25   26 1
    51   27   53 1
    52   28   33 ar
    53   28   29 ar
    54   29   30 ar
    55   29   54 1
    56   30   31 ar
    57   30   55 1
    58   31   32 ar
    59   31   34 1
    60   32   33 ar
    61   32   56 1
    62   33   57 1
@<TRIPOS>MOLECULE
CHEMBL344763
   65    69     0     0     0
SMALL
USER_CHARGES

@<TRIPOS>ATOM
      1 C1         -0.0192    2.7327    0.9931 C.3       1 <0>        -0.1519
      2 C2          0.1965    1.2325    0.7839 C.3       1 <0>        -0.1209
      3 C3          0.8811    0.6389    2.0167 C.3       1 <0>        -0.1125
      4 C4          1.0968   -0.8613    1.8075 C.3       1 <0>         0.2136
      5 H1          1.6391   -1.0407    0.8791 H         1 <0>         0.0723
      6 O1         -0.1696   -1.5548    1.7928 O.3       1 <0>        -0.3620
      7 C5          0.1608   -2.9219    2.1090 C.3       1 <0>         0.0551
      8 H2          0.2517   -3.5350    1.2124 H         1 <0>         0.0953
      9 C6         -0.9021   -3.4800    3.0809 C.3       1 <0>        -0.1310
     10 C7         -0.0688   -4.2217    4.1421 C.3       1 <0>        -0.0739
     11 C8         -0.8510   -4.4961    5.4047 C.3       1 <0>        -0.0904
     12 C9         -2.1315   -5.2660    5.0633 C.3       1 <0>        -0.1189
     13 C10        -2.8174   -5.7042    6.3588 C.3       1 <0>        -0.0961
     14 C11        -3.0542   -4.4782    7.2220 C.2       1 <0>        -0.0231
     15 C12        -4.2740   -4.3012    7.7284 C.2       1 <0>        -0.2340
     16 C13        -4.5524   -3.1408    8.5818 C.2       1 <0>         0.3879
     17 O2         -5.6805   -2.7266    8.7489 O.2       1 <0>        -0.4551
     18 C14        -3.3555   -2.4870    9.2441 C.3       1 <0>        -0.1640
     19 C15        -2.3051   -2.2503    8.1600 C.3       1 <0>        -0.1098
     20 C16        -1.9108   -3.5427    7.4669 C.3       1 <0>        -0.0463
     21 C17        -1.2125   -3.2092    6.1421 C.3       1 <0>         0.1506
     22 C18         0.0782   -2.4417    6.4523 C.3       1 <0>         0.0912
     23 H3         -0.1591   -1.5425    7.0208 H         1 <0>         0.0725
     24 C19         0.7478   -2.0535    5.1375 C.3       1 <0>        -0.1328
     25 C20         1.1473   -3.3040    4.3495 C.3       1 <0>        -0.0078
     26 C21         1.4971   -2.8361    2.8889 C.3       1 <0>         0.1015
     27 O3          1.8125   -1.4277    2.9258 O.3       1 <0>        -0.3493
     28 S1          2.8095   -3.8258    2.1217 S.3       1 <0>        -0.2076
     29 C22         3.1098   -3.0014    0.5340 C.3       1 <0>        -0.1399
     30 C23         2.3125   -4.0431    5.0104 C.3       1 <0>        -0.1504
     31 O4          0.9576   -3.2716    7.2139 O.3       1 <0>        -0.5409
     32 F1         -2.0601   -2.4320    5.3454 F         1 <0>        -0.1864
     33 C24        -0.8905   -4.2623    8.3512 C.3       1 <0>        -0.1376
     34 H4          0.9438    3.2206    1.1443 H         1 <0>         0.0549
     35 H5         -0.5069    3.1556    0.1149 H         1 <0>         0.0582
     36 H6         -0.6480    2.8906    1.8693 H         1 <0>         0.0564
     37 H7         -0.7664    0.7446    0.6328 H         1 <0>         0.0713
     38 H8          0.8254    1.0745   -0.0923 H         1 <0>         0.0616
     39 H9          1.8440    1.1268    2.1679 H         1 <0>         0.0843
     40 H10         0.2523    0.7968    2.8929 H         1 <0>         0.0807
     41 H11        -1.4687   -2.6681    3.5369 H         1 <0>         0.1097
     42 H12        -1.5684   -4.1711    2.5647 H         1 <0>         0.0807
     43 H13         0.2684   -5.1726    3.7296 H         1 <0>         0.0859
     44 H14        -0.2469   -5.1201    6.0633 H         1 <0>         0.1069
     45 H15        -2.8030   -4.6218    4.4958 H         1 <0>         0.0748
     46 H16        -1.8804   -6.1447    4.4692 H         1 <0>         0.0786
     47 H17        -3.7714   -6.1770    6.1256 H         1 <0>         0.0821
     48 H18        -2.1780   -6.4083    6.8912 H         1 <0>         0.0876
     49 H19        -5.0576   -5.0116    7.5103 H         1 <0>         0.1363
     50 H20        -3.6510   -1.5361    9.6874 H         1 <0>         0.0942
     51 H21        -2.9521   -3.1457   10.0132 H         1 <0>         0.1016
     52 H22        -2.7079   -1.5587    7.4200 H         1 <0>         0.0735
     53 H23        -1.4194   -1.8062    8.6144 H         1 <0>         0.0848
     54 H24         0.0542   -1.4595    4.5422 H         1 <0>         0.0850
     55 H25         1.6383   -1.4614    5.3484 H         1 <0>         0.0796
     56 H26         2.1936   -3.0056   -0.0566 H         1 <0>         0.0750
     57 H27         3.4223   -1.9725    0.7123 H         1 <0>         0.0805
     58 H28         3.8937   -3.5306   -0.0077 H         1 <0>         0.1088
     59 H29         2.6180   -4.8778    4.3795 H         1 <0>         0.0617
     60 H30         3.1510   -3.3586    5.1386 H         1 <0>         0.0606
     61 H31         1.9986   -4.4195    5.9840 H         1 <0>         0.0946
     62 H32         1.7955   -2.8482    7.4457 H         1 <0>         0.3793
     63 H33        -0.3715   -5.0201    7.7643 H         1 <0>         0.0724
     64 H34        -0.1681   -3.5410    8.7334 H         1 <0>         0.0903
     65 H35        -1.4049   -4.7384    9.1860 H         1 <0>         0.0509
@<TRIPOS>BOND
     1    1    2 1
     2    1   34 1
     3    1   35 1
     4    1   36 1
     5    2    3 1
     6    2   37 1
     7    2   38 1
     8    3    4 1
     9    3   39 1
    10    3   40 1
    11    4    5 1
    12    4   27 1
    13    4    6 1
    14    6    7 1
    15    7    8 1
    16    7   26 1
    17    7    9 1
    18    9   10 1
    19    9   41 1
    20    9   42 1
    21   10   25 1
    22   10   11 1
    23   10   43 1
    24   11   21 1
    25   11   12 1
    26   11   44 1
    27   12   13 1
    28   12   45 1
    29   12   46 1
    30   13   14 1
    31   13   47 1
    32   13   48 1
    33   14   20 1
    34   14   15 2
    35   15   16 1
    36   15   49 1
    37   16   17 2
    38   16   18 1
    39   18   19 1
    40   18   50 1
    41   18   51 1
    42   19   20 1
    43   19   52 1
    44   19   53 1
    45   20   21 1
    46   20   33 1
    47   21   22 1
    48   21   32 1
    49   22   23 1
    50   22   24 1
    51   22   31 1
    52   24   25 1
    53   24   54 1
    54   24   55 1
    55   25   26 1
    56   25   30 1
    57   26   27 1
    58   26   28 1
    59   28   29 1
    60   29   56 1
    61   29   57 1
    62   29   58 1
    63   30   59 1
    64   30   60 1
    65   30   61 1
    66   31   62 1
    67   33   63 1
    68   33   64 1
    69   33   65 1
@<TRIPOS>MOLECULE
CHEMBL344763__1
   65    69     0     0     0
SMALL
USER_CHARGES

@<TRIPOS>ATOM
      1 C1         -0.6327    1.3337   -0.0338 C.3       1 <0>        -0.1524
      2 C2         -0.4841   -0.1890   -0.0181 C.3       1 <0>        -0.1186
      3 C3          0.3413   -0.6083    1.2000 C.3       1 <0>        -0.1253
      4 C4          0.4898   -2.1295    1.2157 C.3       1 <0>         0.2117
      5 H1          0.9010   -2.4702    0.2661 H         1 <0>         0.0863
      6 O1         -0.7864   -2.7424    1.4361 O.3       1 <0>        -0.3720
      7 C5         -0.6394   -3.6968    2.5050 C.3       1 <0>         0.0662
      8 H2         -1.1449   -4.6404    2.2980 H         1 <0>         0.1290
      9 C6         -1.1014   -3.0429    3.8182 C.3       1 <0>        -0.1364
     10 C7          0.0198   -3.2683    4.8607 C.3       1 <0>        -0.0622
     11 C8          0.4611   -1.9159    5.3726 C.3       1 <0>        -0.0981
     12 C9         -0.6270   -1.2538    6.2127 C.3       1 <0>        -0.1118
     13 C10        -0.7466   -1.9786    7.5554 C.3       1 <0>        -0.0995
     14 C11         0.6140   -1.9281    8.2289 C.2       1 <0>        -0.0315
     15 C12         0.6746   -1.3943    9.4450 C.2       1 <0>        -0.2291
     16 C13         1.9563   -1.3132   10.1525 C.2       1 <0>         0.3886
     17 O2          2.1423   -0.5278   11.0571 O.2       1 <0>        -0.4558
     18 C14         3.0332   -2.2710    9.6856 C.3       1 <0>        -0.1682
     19 C15         3.1216   -2.1656    8.1650 C.3       1 <0>        -0.1029
     20 C16         1.7981   -2.4761    7.4753 C.3       1 <0>        -0.0285
     21 C17         1.8086   -1.8980    6.0671 C.3       1 <0>         0.1692
     22 C18         2.8593   -2.4836    5.1376 C.3       1 <0>         0.1019
     23 H3          2.9418   -1.7919    4.2657 H         1 <0>         0.0652
     24 C19         2.5207   -3.8494    4.5872 C.3       1 <0>        -0.1380
     25 C20         1.1014   -4.0640    4.1602 C.3       1 <0>        -0.0086
     26 C21         0.9065   -3.8427    2.6504 C.3       1 <0>         0.1027
     27 O3          1.3651   -2.5226    2.2881 O.3       1 <0>        -0.3426
     28 S1          1.6185   -5.1622    1.6278 S.3       1 <0>        -0.2072
     29 C22         1.2975   -4.6206   -0.0735 C.3       1 <0>        -0.1413
     30 C23         0.7857   -5.5461    4.4103 C.3       1 <0>        -0.1581
     31 O4          4.1538   -2.4993    5.7446 O.3       1 <0>        -0.5518
     32 F1          2.1426   -0.5162    6.2158 F         1 <0>        -0.2124
     33 C24         1.6482   -3.9952    7.4674 C.3       1 <0>        -0.1527
     34 H4          0.3536    1.7945   -0.0871 H         1 <0>         0.0548
     35 H5         -1.2207    1.6324   -0.9016 H         1 <0>         0.0578
     36 H6         -1.1370    1.6589    0.8762 H         1 <0>         0.0555
     37 H7         -1.4704   -0.6499    0.0352 H         1 <0>         0.0709
     38 H8          0.0202   -0.5142   -0.9281 H         1 <0>         0.0614
     39 H9          1.3277   -0.1475    1.1467 H         1 <0>         0.0817
     40 H10        -0.1629   -0.2831    2.1100 H         1 <0>         0.0761
     41 H11        -1.2593   -1.9751    3.6677 H         1 <0>         0.0884
     42 H12        -2.0253   -3.5082    4.1625 H         1 <0>         0.0844
     43 H13        -0.3900   -3.8592    5.6818 H         1 <0>         0.0943
     44 H14         0.5787   -1.2764    4.4739 H         1 <0>         0.0854
     45 H15        -0.3684   -0.2076    6.3890 H         1 <0>         0.0767
     46 H16        -1.5817   -1.3016    5.6876 H         1 <0>         0.0810
     47 H17        -1.4811   -1.4703    8.1805 H         1 <0>         0.0817
     48 H18        -1.0499   -3.0098    7.3974 H         1 <0>         0.0862
     49 H19        -0.2233   -1.0189    9.9160 H         1 <0>         0.1357
     50 H20         3.9912   -1.9914   10.1296 H         1 <0>         0.0927
     51 H21         2.7812   -3.2886    9.9812 H         1 <0>         0.0983
     52 H22         3.4398   -1.1630    7.8916 H         1 <0>         0.0785
     53 H23         3.8666   -2.8904    7.8278 H         1 <0>         0.0966
     54 H24         3.1508   -4.0076    3.6903 H         1 <0>         0.0794
     55 H25         2.8171   -4.6316    5.2839 H         1 <0>         0.0889
     56 H26         0.2389   -4.3865   -0.1866 H         1 <0>         0.0870
     57 H27         1.8912   -3.7326   -0.2902 H         1 <0>         0.0811
     58 H28         1.5694   -5.4173   -0.7658 H         1 <0>         0.1083
     59 H29        -0.1971   -5.7821    4.0022 H         1 <0>         0.0667
     60 H30         1.5394   -6.1652    3.9239 H         1 <0>         0.0729
     61 H31         0.7906   -5.7427    5.4824 H         1 <0>         0.0726
     62 H32         4.8483   -2.8661    5.1804 H         1 <0>         0.3812
     63 H33         0.7151   -4.2657    6.9732 H         1 <0>         0.0654
     64 H34         2.4860   -4.4402    6.9305 H         1 <0>         0.0753
     65 H35         1.6365   -4.3645    8.4929 H         1 <0>         0.0671
@<TRIPOS>BOND
     1    1    2 1
     2    1   34 1
     3    1   35 1
     4    1   36 1
     5    2    3 1
     6    2   37 1
     7    2   38 1
     8    3    4 1
     9    3   39 1
    10    3   40 1
    11    4    5 1
    12    4   27 1
    13    4    6 1
    14    6    7 1
    15    7    8 1
    16    7   26 1
    17    7    9 1
    18    9   10 1
    19    9   41 1
    20    9   42 1
    21   10   25 1
    22   10   11 1
    23   10   43 1
    24   11   21 1
    25   11   12 1
    26   11   44 1
    27   12   13 1
    28   12   45 1
    29   12   46 1
    30   13   14 1
    31   13   47 1
    32   13   48 1
    33   14   20 1
    34   14   15 2
    35   15   16 1
    36   15   49 1
    37   16   17 2
    38   16   18 1
    39   18   19 1
    40   18   50 1
    41   18   51 1
    42   19   20 1
    43   19   52 1
    44   19   53 1
    45   20   21 1
    46   20   33 1
    47   21   22 1
    48   21   32 1
    49   22   23 1
    50   22   24 1
    51   22   31 1
    52   24   25 1
    53   24   54 1
    54   24   55 1
    55   25   26 1
    56   25   30 1
    57   26   27 1
    58   26   28 1
    59   28   29 1
    60   29   56 1
    61   29   57 1
    62   29   58 1
    63   30   59 1
    64   30   60 1
    65   30   61 1
    66   31   62 1
    67   33   63 1
    68   33   64 1
    69   33   65 1
@<TRIPOS>MOLECULE
CHEMBL344763__2
   65    69     0     0     0
SMALL
USER_CHARGES

@<TRIPOS>ATOM
      1 C1          0.4526    1.6622    0.2722 C.3       1 <0>        -0.1522
      2 C2          0.4414    0.1326    0.2382 C.3       1 <0>        -0.1201
      3 C3          1.1882   -0.4101    1.4584 C.3       1 <0>        -0.1134
      4 C4          1.1771   -1.9397    1.4244 C.3       1 <0>         0.2133
      5 H1          1.5727   -2.3008    0.4751 H         1 <0>         0.0750
      6 O1         -0.1608   -2.4377    1.6339 O.3       1 <0>        -0.3636
      7 C5          0.0139   -3.7909    2.1017 C.3       1 <0>         0.0550
      8 H2         -0.1283   -4.5257    1.3092 H         1 <0>         0.1021
      9 C6         -0.9554   -4.0137    3.2945 C.3       1 <0>        -0.1099
     10 C7         -0.1331   -3.5497    4.5018 C.3       1 <0>        -0.0813
     11 C8         -0.5598   -4.1154    5.8444 C.3       1 <0>        -0.0958
     12 C9         -1.9646   -3.6151    6.1927 C.3       1 <0>        -0.1171
     13 C10        -2.4099   -4.2466    7.5134 C.3       1 <0>        -0.0964
     14 C11        -1.3708   -3.9392    8.5761 C.2       1 <0>        -0.0228
     15 C12        -1.8009   -3.4623    9.7438 C.2       1 <0>        -0.2346
     16 C13        -0.8427   -3.1619   10.8130 C.2       1 <0>         0.3880
     17 O2         -1.1115   -2.3974   11.7160 O.2       1 <0>        -0.4555
     18 C14         0.5016   -3.8585   10.7295 C.3       1 <0>        -0.1640
     19 C15         1.0343   -3.6564    9.3118 C.3       1 <0>        -0.1088
     20 C16         0.0722   -4.1962    8.2680 C.3       1 <0>        -0.0454
     21 C17         0.4301   -3.6023    6.8999 C.3       1 <0>         0.1510
     22 C18         1.8686   -3.9753    6.5538 C.3       1 <0>         0.0904
     23 H3          2.5400   -3.5094    7.2752 H         1 <0>         0.0716
     24 C19         2.2523   -3.5113    5.1400 C.3       1 <0>        -0.1287
     25 C20         1.2643   -4.1426    4.1775 C.3       1 <0>        -0.0310
     26 C21         1.4566   -3.8197    2.6876 C.3       1 <0>         0.1160
     27 O3          1.9442   -2.4732    2.5251 O.3       1 <0>        -0.3472
     28 S1          2.5041   -5.0404    1.8491 S.3       1 <0>        -0.2129
     29 C22         2.6631   -4.3964    0.1607 C.3       1 <0>        -0.1406
     30 C23         1.2431   -5.6593    4.3772 C.3       1 <0>        -0.1584
     31 O4          2.0136   -5.3948    6.6322 O.3       1 <0>        -0.5399
     32 F1          0.3378   -2.2081    6.9710 F         1 <0>        -0.1943
     33 C24         0.2748   -5.7099    8.1747 C.3       1 <0>        -0.1376
     34 H4          1.4826    2.0185    0.2559 H         1 <0>         0.0551
     35 H5         -0.0795    2.0488   -0.5970 H         1 <0>         0.0582
     36 H6         -0.0375    2.0090    1.1820 H         1 <0>         0.0565
     37 H7         -0.5886   -0.2237    0.2546 H         1 <0>         0.0710
     38 H8          0.9314   -0.2142   -0.6715 H         1 <0>         0.0616
     39 H9          2.2182   -0.0538    1.4420 H         1 <0>         0.0845
     40 H10         0.6982   -0.0633    2.3681 H         1 <0>         0.0813
     41 H11        -1.8516   -3.4038    3.1816 H         1 <0>         0.0879
     42 H12        -1.2151   -5.0682    3.3878 H         1 <0>         0.0888
     43 H13        -0.0873   -2.4612    4.5342 H         1 <0>         0.0899
     44 H14        -0.5396   -5.2047    5.8131 H         1 <0>         0.1148
     45 H15        -1.9500   -2.5300    6.2945 H         1 <0>         0.0744
     46 H16        -2.6587   -3.8982    5.4013 H         1 <0>         0.0792
     47 H17        -3.3720   -3.8300    7.8116 H         1 <0>         0.0819
     48 H18        -2.4989   -5.3261    7.3907 H         1 <0>         0.0874
     49 H19        -2.8562   -3.2965    9.9030 H         1 <0>         0.1360
     50 H20         1.1914   -3.4198   11.4505 H         1 <0>         0.0938
     51 H21         0.3805   -4.9227   10.9316 H         1 <0>         0.1017
     52 H22         1.1866   -2.5913    9.1377 H         1 <0>         0.0718
     53 H23         1.9900   -4.1714    9.2144 H         1 <0>         0.0865
     54 H24         2.1903   -2.4249    5.0763 H         1 <0>         0.0846
     55 H25         3.2639   -3.8409    4.9029 H         1 <0>         0.0795
     56 H26         1.6753   -4.3214   -0.2940 H         1 <0>         0.0763
     57 H27         3.1254   -3.4098    0.1902 H         1 <0>         0.0802
     58 H28         3.2840   -5.0712   -0.4286 H         1 <0>         0.1087
     59 H29         0.6616   -6.1227    3.5803 H         1 <0>         0.0535
     60 H30         2.2630   -6.0432    4.3531 H         1 <0>         0.0632
     61 H31         0.7897   -5.8926    5.3406 H         1 <0>         0.1097
     62 H32         2.9036   -5.7113    6.4251 H         1 <0>         0.3763
     63 H33        -0.0703   -6.0634    7.2031 H         1 <0>         0.0698
     64 H34         1.3333   -5.9426    8.2911 H         1 <0>         0.0950
     65 H35        -0.2942   -6.2019    8.9635 H         1 <0>         0.0500
@<TRIPOS>BOND
     1    1    2 1
     2    1   34 1
     3    1   35 1
     4    1   36 1
     5    2    3 1
     6    2   37 1
     7    2   38 1
     8    3    4 1
     9    3   39 1
    10    3   40 1
    11    4    5 1
    12    4   27 1
    13    4    6 1
    14    6    7 1
    15    7    8 1
    16    7   26 1
    17    7    9 1
    18    9   10 1
    19    9   41 1
    20    9   42 1
    21   10   25 1
    22   10   11 1
    23   10   43 1
    24   11   21 1
    25   11   12 1
    26   11   44 1
    27   12   13 1
    28   12   45 1
    29   12   46 1
    30   13   14 1
    31   13   47 1
    32   13   48 1
    33   14   20 1
    34   14   15 2
    35   15   16 1
    36   15   49 1
    37   16   17 2
    38   16   18 1
    39   18   19 1
    40   18   50 1
    41   18   51 1
    42   19   20 1
    43   19   52 1
    44   19   53 1
    45   20   21 1
    46   20   33 1
    47   21   22 1
    48   21   32 1
    49   22   23 1
    50   22   24 1
    51   22   31 1
    52   24   25 1
    53   24   54 1
    54   24   55 1
    55   25   26 1
    56   25   30 1
    57   26   27 1
    58   26   28 1
    59   28   29 1
    60   29   56 1
    61   29   57 1
    62   29   58 1
    63   30   59 1
    64   30   60 1
    65   30   61 1
    66   31   62 1
    67   33   63 1
    68   33   64 1
    69   33   65 1
@<TRIPOS>MOLECULE
CHEMBL344763__3
   65    69     0     0     0
SMALL
USER_CHARGES

@<TRIPOS>ATOM
      1 C1          0.1369    1.5013   -0.0614 C.3       1 <0>        -0.1521
      2 C2          0.1585   -0.0285   -0.0598 C.3       1 <0>        -0.1200
      3 C3          0.8492   -0.5275    1.2109 C.3       1 <0>        -0.1146
      4 C4          0.8708   -2.0576    1.2125 C.3       1 <0>         0.2085
      5 H1          1.3249   -2.4288    0.2932 H         1 <0>         0.0802
      6 O1         -0.4637   -2.5808    1.3616 O.3       1 <0>        -0.3675
      7 C5         -0.3223   -3.8772    1.9752 C.3       1 <0>         0.0576
      8 H2         -0.5400   -4.6945    1.2930 H         1 <0>         0.1088
      9 C6         -1.2311   -3.9018    3.2412 C.3       1 <0>        -0.1135
     10 C7         -0.2574   -3.4697    4.3420 C.3       1 <0>        -0.0837
     11 C8         -0.6722   -3.5781    5.7773 C.3       1 <0>        -0.0727
     12 C9         -1.2564   -4.9085    6.1946 C.3       1 <0>        -0.1111
     13 C10        -1.6392   -4.8972    7.6779 C.3       1 <0>        -0.0968
     14 C11        -1.2690   -3.5623    8.2911 C.2       1 <0>        -0.0172
     15 C12        -2.2161   -2.9169    8.9714 C.2       1 <0>        -0.2376
     16 C13        -1.9319   -1.6225    9.5986 C.2       1 <0>         0.3873
     17 O2         -2.8177   -0.8573    9.9193 O.2       1 <0>        -0.4555
     18 C14        -0.4696   -1.2913    9.8276 C.3       1 <0>        -0.1672
     19 C15         0.2694   -1.5821    8.5242 C.3       1 <0>        -0.1111
     20 C16         0.1277   -3.0439    8.1026 C.3       1 <0>        -0.0405
     21 C17         0.5281   -3.1576    6.6387 C.3       1 <0>         0.1560
     22 C18         1.7511   -4.0053    6.3579 C.3       1 <0>         0.1068
     23 H3          2.6002   -3.6146    6.9383 H         1 <0>         0.0661
     24 C19         2.1557   -3.9054    4.8733 C.3       1 <0>        -0.1368
     25 C20         1.0002   -4.2830    3.9848 C.3       1 <0>        -0.0115
     26 C21         1.1461   -3.9026    2.4996 C.3       1 <0>         0.1026
     27 O3          1.5979   -2.5483    2.3615 O.3       1 <0>        -0.3417
     28 S1          2.1827   -5.0851    1.6060 S.3       1 <0>        -0.2156
     29 C22         2.2720   -4.4081   -0.0746 C.3       1 <0>        -0.1438
     30 C23         0.7709   -5.7947    4.0027 C.3       1 <0>        -0.1636
     31 O4          1.5540   -5.3701    6.7080 O.3       1 <0>        -0.5446
     32 F1          0.8595   -1.8451    6.2142 F         1 <0>        -0.2036
     33 C24         1.0585   -3.8581    8.9963 C.3       1 <0>        -0.1462
     34 H4          1.1589    1.8792   -0.0311 H         1 <0>         0.0551
     35 H5         -0.3552    1.8568   -0.9667 H         1 <0>         0.0582
     36 H6         -0.4084    1.8579    0.8124 H         1 <0>         0.0565
     37 H7         -0.8635   -0.4063   -0.0902 H         1 <0>         0.0710
     38 H8          0.7038   -0.3851   -0.9337 H         1 <0>         0.0615
     39 H9          1.8711   -0.1497    1.2413 H         1 <0>         0.0845
     40 H10         0.3039   -0.1709    2.0848 H         1 <0>         0.0809
     41 H11        -2.0339   -3.1670    3.1351 H         1 <0>         0.0847
     42 H12        -1.6424   -4.8877    3.4165 H         1 <0>         0.0900
     43 H13        -0.0246   -2.3898    4.1459 H         1 <0>         0.0884
     44 H14        -1.4626   -2.8088    5.9533 H         1 <0>         0.0772
     45 H15        -2.1596   -5.1135    5.6103 H         1 <0>         0.0692
     46 H16        -0.5598   -5.7281    6.0526 H         1 <0>         0.0967
     47 H17        -2.7147   -5.0541    7.7689 H         1 <0>         0.0759
     48 H18        -1.1133   -5.7005    8.1915 H         1 <0>         0.0904
     49 H19        -3.2016   -3.3534    9.0605 H         1 <0>         0.1364
     50 H20        -0.3686   -0.2342   10.0806 H         1 <0>         0.0942
     51 H21        -0.0714   -1.8995   10.6373 H         1 <0>         0.1010
     52 H22        -0.1475   -0.9514    7.7388 H         1 <0>         0.0812
     53 H23         1.3257   -1.3554    8.6487 H         1 <0>         0.0844
     54 H24         2.4724   -2.8795    4.6587 H         1 <0>         0.0874
     55 H25         3.0025   -4.5749    4.6891 H         1 <0>         0.0793
     56 H26         1.2680   -4.3431   -0.4939 H         1 <0>         0.0781
     57 H27         2.7174   -3.4138   -0.0425 H         1 <0>         0.0807
     58 H28         2.8842   -5.0606   -0.6971 H         1 <0>         0.1083
     59 H29        -0.0878   -6.0394    3.3775 H         1 <0>         0.0621
     60 H30         1.6563   -6.3010    3.6182 H         1 <0>         0.0683
     61 H31         0.5808   -6.1213    5.0251 H         1 <0>         0.0967
     62 H32         2.3208   -5.9343    6.5386 H         1 <0>         0.3849
     63 H33         1.0062   -4.9094    8.7133 H         1 <0>         0.0871
     64 H34         2.0812   -3.5002    8.8774 H         1 <0>         0.0624
     65 H35         0.7530   -3.7462   10.0366 H         1 <0>         0.0618
@<TRIPOS>BOND
     1    1    2 1
     2    1   34 1
     3    1   35 1
     4    1   36 1
     5    2    3 1
     6    2   37 1
     7    2   38 1
     8    3    4 1
     9    3   39 1
    10    3   40 1
    11    4    5 1
    12    4   27 1
    13    4    6 1
    14    6    7 1
    15    7    8 1
    16    7   26 1
    17    7    9 1
    18    9   10 1
    19    9   41 1
    20    9   42 1
    21   10   25 1
    22   10   11 1
    23   10   43 1
    24   11   21 1
    25   11   12 1
    26   11   44 1
    27   12   13 1
    28   12   45 1
    29   12   46 1
    30   13   14 1
    31   13   47 1
    32   13   48 1
    33   14   20 1
    34   14   15 2
    35   15   16 1
    36   15   49 1
    37   16   17 2
    38   16   18 1
    39   18   19 1
    40   18   50 1
    41   18   51 1
    42   19   20 1
    43   19   52 1
    44   19   53 1
    45   20   21 1
    46   20   33 1
    47   21   22 1
    48   21   32 1
    49   22   23 1
    50   22   24 1
    51   22   31 1
    52   24   25 1
    53   24   54 1
    54   24   55 1
    55   25   26 1
    56   25   30 1
    57   26   27 1
    58   26   28 1
    59   28   29 1
    60   29   56 1
    61   29   57 1
    62   29   58 1
    63   30   59 1
    64   30   60 1
    65   30   61 1
    66   31   62 1
    67   33   63 1
    68   33   64 1
    69   33   65 1
@<TRIPOS>MOLECULE
CHEMBL470783
   66    70     0     0     0
SMALL
USER_CHARGES

@<TRIPOS>ATOM
      1 C1         -0.5965    0.9627   -0.1036 C.3       1 <0>        -0.1617
      2 C2         -0.3058   -0.5320    0.0458 C.3       1 <0>        -0.1233
      3 C3          0.3971   -1.0432   -1.2133 C.3       1 <0>        -0.0008
      4 C4          1.7187   -0.2960   -1.3788 C.3       1 <0>        -0.1546
      5 C5          2.5690   -0.5104   -0.1224 C.3       1 <0>         0.0793
      6 H1          2.0408   -0.1125    0.7441 H         1 <0>         0.0724
      7 C6          2.8304   -2.0025    0.0839 C.3       1 <0>         0.1908
      8 C7          1.5017   -2.7532    0.2203 C.3       1 <0>        -0.1002
      9 C8          0.6804   -2.5356   -1.0491 C.3       1 <0>        -0.0758
     10 H2          1.2419   -2.8958   -1.9111 H         1 <0>         0.0811
     11 C9         -0.6579   -3.2707   -0.9697 C.3       1 <0>        -0.1163
     12 C10        -1.3142   -3.2167   -2.3488 C.3       1 <0>        -0.0816
     13 C11        -1.3045   -1.8164   -2.9031 C.ar      1 <0>        -0.0302
     14 C12        -0.4975   -0.8106   -2.3975 C.ar      1 <0>        -0.0960
     15 C13        -0.5236    0.4574   -2.9614 C.ar      1 <0>        -0.0727
     16 C14        -1.3323    0.7277   -4.0452 C.ar      1 <0>        -0.2120
     17 C15        -2.1278   -0.2773   -4.5756 C.ar      1 <0>         0.1306
     18 C16        -2.1350   -1.5457   -3.9821 C.ar      1 <0>        -0.1535
     19 O1         -2.9316   -0.0209   -5.6409 O.3       1 <0>        -0.3129
     20 C17        -2.9083    1.3079   -6.1662 C.3       1 <0>         0.1107
     21 C18        -3.8551    1.4027   -7.3348 C.ar      1 <0>        -0.1473
     22 C19        -4.5868    0.2957   -7.7373 C.ar      1 <0>        -0.0498
     23 C20        -5.4455    0.4294   -8.8174 C.ar      1 <0>        -0.1783
     24 C21        -5.5431    1.6531   -9.4528 C.ar      1 <0>         0.1052
     25 N1         -4.8314    2.6846   -9.0427 N.ar      1 <0>        -0.4817
     26 C22        -4.0094    2.5955   -8.0152 C.ar      1 <0>         0.1368
     27 C23        -3.2243    3.8068   -7.5823 C.3       1 <0>        -0.1116
     28 C24         3.5922   -2.5449   -1.0978 C.ar      1 <0>        -0.1138
     29 C25         4.0812   -1.6816   -2.0603 C.ar      1 <0>        -0.1069
     30 C26         4.7800   -2.1791   -3.1442 C.ar      1 <0>        -0.1315
     31 C27         4.9903   -3.5400   -3.2655 C.ar      1 <0>        -0.1153
     32 C28         4.5021   -4.4033   -2.3025 C.ar      1 <0>        -0.1283
     33 C29         3.8070   -3.9054   -1.2163 C.ar      1 <0>        -0.0987
     34 O2          3.6044   -2.1888    1.2706 O.3       1 <0>        -0.5506
     35 O3          3.8161    0.1711   -0.2718 O.3       1 <0>        -0.5597
     36 H3          0.3401    1.5030   -0.2416 H         1 <0>         0.0529
     37 H4         -1.2394    1.1231   -0.9692 H         1 <0>         0.0635
     38 H5         -1.0973    1.3270    0.7934 H         1 <0>         0.0541
     39 H6          0.3370   -0.6923    0.9113 H         1 <0>         0.0726
     40 H7         -1.2424   -1.0722    0.1838 H         1 <0>         0.0702
     41 H8          2.2496   -0.6813   -2.2493 H         1 <0>         0.0905
     42 H9          1.5226    0.7682   -1.5098 H         1 <0>         0.0750
     43 H10         1.6954   -3.8177    0.3521 H         1 <0>         0.0806
     44 H11         0.9526   -2.3705    1.0807 H         1 <0>         0.0808
     45 H12        -0.4908   -4.3088   -0.6822 H         1 <0>         0.0729
     46 H13        -1.3016   -2.7845   -0.2367 H         1 <0>         0.0734
     47 H14        -0.7715   -3.8736   -3.0286 H         1 <0>         0.0796
     48 H15        -2.3450   -3.5615   -2.2675 H         1 <0>         0.0788
     49 H16         0.0956    1.2396   -2.5477 H         1 <0>         0.1258
     50 H17        -1.3464    1.7168   -4.4786 H         1 <0>         0.1266
     51 H18        -2.7603   -2.3284   -4.3857 H         1 <0>         0.1292
     52 H19        -3.2158    2.0103   -5.3915 H         1 <0>         0.0792
     53 H20        -1.8982    1.5504   -6.4964 H         1 <0>         0.0791
     54 H21        -4.4897   -0.6484   -7.2218 H         1 <0>         0.1432
     55 H22        -6.0305   -0.4120   -9.1583 H         1 <0>         0.1382
     56 H23        -6.2097    1.7655  -10.2950 H         1 <0>         0.1590
     57 H24        -2.2740    3.8335   -8.1156 H         1 <0>         0.0825
     58 H25        -3.7934    4.7085   -7.8086 H         1 <0>         0.0828
     59 H26        -3.0377    3.7545   -6.5097 H         1 <0>         0.0736
     60 H27         3.9169   -0.6184   -1.9656 H         1 <0>         0.1517
     61 H28         5.1614   -1.5047   -3.8966 H         1 <0>         0.1186
     62 H29         5.5357   -3.9288   -4.1127 H         1 <0>         0.1185
     63 H30         4.6661   -5.4665   -2.3974 H         1 <0>         0.1201
     64 H31         3.4288   -4.5795   -0.4621 H         1 <0>         0.1204
     65 H32         4.4646   -1.7474    1.2525 H         1 <0>         0.3847
     66 H33         3.7298    1.1258   -0.3994 H         1 <0>         0.3802
@<TRIPOS>BOND
     1    1    2 1
     2    1   36 1
     3    1   37 1
     4    1   38 1
     5    2    3 1
     6    2   39 1
     7    2   40 1
     8    3    9 1
     9    3   14 1
    10    3    4 1
    11    4    5 1
    12    4   41 1
    13    4   42 1
    14    5    6 1
    15    5    7 1
    16    5   35 1
    17    7    8 1
    18    7   28 1
    19    7   34 1
    20    8    9 1
    21    8   43 1
    22    8   44 1
    23    9   10 1
    24    9   11 1
    25   11   12 1
    26   11   45 1
    27   11   46 1
    28   12   13 1
    29   12   47 1
    30   12   48 1
    31   13   18 ar
    32   13   14 ar
    33   14   15 ar
    34   15   16 ar
    35   15   49 1
    36   16   17 ar
    37   16   50 1
    38   17   18 ar
    39   17   19 1
    40   18   51 1
    41   19   20 1
    42   20   21 1
    43   20   52 1
    44   20   53 1
    45   21   26 ar
    46   21   22 ar
    47   22   23 ar
    48   22   54 1
    49   23   24 ar
    50   23   55 1
    51   24   25 ar
    52   24   56 1
    53   25   26 ar
    54   26   27 1
    55   27   57 1
    56   27   58 1
    57   27   59 1
    58   28   33 ar
    59   28   29 ar
    60   29   30 ar
    61   29   60 1
    62   30   31 ar
    63   30   61 1
    64   31   32 ar
    65   31   62 1
    66   32   33 ar
    67   32   63 1
    68   33   64 1
    69   34   65 1
    70   35   66 1
@<TRIPOS>MOLECULE
CHEMBL186805
   60    64     0     0     0
SMALL
USER_CHARGES

@<TRIPOS>ATOM
      1 C1          0.1057    1.5974   -0.0371 C.3       1 <0>        -0.1484
      2 C2          0.0516    0.0688    0.0012 C.3       1 <0>        -0.0121
      3 C3         -1.4252   -0.3576   -0.0212 C.3       1 <0>        -0.0336
      4 C4         -1.9258   -1.1611    1.1573 C.2       1 <0>        -0.2169
      5 C5         -3.1805   -1.6741    1.4753 C.2       1 <0>         0.0698
      6 N1         -3.0977   -2.2987    2.6236 N.2       1 <0>        -0.2801
      7 N2         -1.7807   -2.2110    3.0904 N.pl3     1 <0>        -0.3217
      8 C6         -1.0547   -1.5049    2.1672 C.2       1 <0>         0.1193
      9 C7          0.3633   -1.1293    2.1298 C.2       1 <0>        -0.1267
     10 C8          0.8947   -0.4026    1.1664 C.2       1 <0>        -0.0478
     11 C9          2.3676   -0.0679    1.1706 C.3       1 <0>        -0.0836
     12 C10         2.9718   -0.5422   -0.1567 C.3       1 <0>        -0.1138
     13 C11         2.1704    0.0446   -1.3198 C.3       1 <0>        -0.1291
     14 C12         0.7259   -0.4565   -1.2667 C.3       1 <0>        -0.1088
     15 H1          0.7193   -1.5464   -1.2570 H         1 <0>         0.0803
     16 C13        -0.0344    0.0475   -2.4951 C.3       1 <0>         0.1077
     17 C14         0.5394   -0.6063   -3.7537 C.3       1 <0>        -0.1453
     18 C15        -0.2992   -0.1997   -4.9671 C.3       1 <0>        -0.0773
     19 C16         0.2659   -0.8438   -6.2069 C.ar      1 <0>        -0.0818
     20 C17         1.2372   -0.1915   -6.9432 C.ar      1 <0>        -0.1185
     21 C18         1.7556   -0.7822   -8.0803 C.ar      1 <0>        -0.1183
     22 C19         1.3031   -2.0255   -8.4810 C.ar      1 <0>        -0.1260
     23 C20         0.3325   -2.6782   -7.7442 C.ar      1 <0>        -0.1180
     24 C21        -0.1828   -2.0893   -6.6046 C.ar      1 <0>        -0.1194
     25 O1          0.1026    1.4667   -2.5909 O.3       1 <0>        -0.5515
     26 C22        -1.2918   -2.7497    4.2880 C.ar      1 <0>         0.1485
     27 C23         0.0037   -3.2458    4.3495 C.ar      1 <0>        -0.1050
     28 C24         0.4837   -3.7759    5.5309 C.ar      1 <0>        -0.1304
     29 C25        -0.3260   -3.8129    6.6538 C.ar      1 <0>         0.0971
     30 C26        -1.6185   -3.3191    6.5944 C.ar      1 <0>        -0.1317
     31 C27        -2.1003   -2.7830    5.4165 C.ar      1 <0>        -0.0831
     32 F1          0.1455   -4.3319    7.8086 F         1 <0>        -0.1334
     33 H2          1.1158    1.9190   -0.2909 H         1 <0>         0.0602
     34 H3         -0.5927    1.9669   -0.7881 H         1 <0>         0.0891
     35 H4         -0.1676    1.9952    0.9402 H         1 <0>         0.0452
     36 H5         -2.0337    0.5436   -0.0959 H         1 <0>         0.0767
     37 H6         -1.5910   -0.9461   -0.9235 H         1 <0>         0.0728
     38 H7         -4.0730   -1.5736    0.8754 H         1 <0>         0.1903
     39 H8          0.9991   -1.4465    2.9431 H         1 <0>         0.1172
     40 H9          2.4994    1.0096    1.2702 H         1 <0>         0.0834
     41 H10         2.8579   -0.5770    2.0003 H         1 <0>         0.0743
     42 H11         4.0074   -0.2089   -0.2243 H         1 <0>         0.0704
     43 H12         2.9365   -1.6306   -0.2037 H         1 <0>         0.0649
     44 H13         2.1785    1.1324   -1.2521 H         1 <0>         0.0753
     45 H14         2.6247   -0.2608   -2.2624 H         1 <0>         0.0694
     46 H15        -1.0893   -0.2101   -2.4004 H         1 <0>         0.1055
     47 H16         1.5687   -0.2777   -3.8968 H         1 <0>         0.0693
     48 H17         0.5161   -1.6904   -3.6428 H         1 <0>         0.0717
     49 H18        -1.3286   -0.5284   -4.8240 H         1 <0>         0.0711
     50 H19        -0.2760    0.8843   -5.0781 H         1 <0>         0.0795
     51 H20         1.5907    0.7798   -6.6302 H         1 <0>         0.1203
     52 H21         2.5138   -0.2723   -8.6560 H         1 <0>         0.1210
     53 H22         1.7076   -2.4867   -9.3698 H         1 <0>         0.1205
     54 H23        -0.0213   -3.6493   -8.0573 H         1 <0>         0.1210
     55 H24        -0.9384   -2.6009   -6.0269 H         1 <0>         0.1201
     56 H25         1.0171    1.7686   -2.6776 H         1 <0>         0.3702
     57 H26         0.6353   -3.2174    3.4739 H         1 <0>         0.1420
     58 H27         1.4911   -4.1621    5.5790 H         1 <0>         0.1470
     59 H28        -2.2485   -3.3492    7.4711 H         1 <0>         0.1469
     60 H29        -3.1067   -2.3935    5.3719 H         1 <0>         0.1445
@<TRIPOS>BOND
     1    1    2 1
     2    1   33 1
     3    1   34 1
     4    1   35 1
     5    2   10 1
     6    2   14 1
     7    2    3 1
     8    3    4 1
     9    3   36 1
    10    3   37 1
    11    4    8 2
    12    4    5 1
    13    5    6 2
    14    5   38 1
    15    6    7 1
    16    7    8 1
    17    7   26 1
    18    8    9 1
    19    9   10 2
    20    9   39 1
    21   10   11 1
    22   11   12 1
    23   11   40 1
    24   11   41 1
    25   12   13 1
    26   12   42 1
    27   12   43 1
    28   13   14 1
    29   13   44 1
    30   13   45 1
    31   14   15 1
    32   14   16 1
    33   16   17 1
    34   16   25 1
    35   16   46 1
    36   17   18 1
    37   17   47 1
    38   17   48 1
    39   18   19 1
    40   18   49 1
    41   18   50 1
    42   19   24 ar
    43   19   20 ar
    44   20   21 ar
    45   20   51 1
    46   21   22 ar
    47   21   52 1
    48   22   23 ar
    49   22   53 1
    50   23   24 ar
    51   23   54 1
    52   24   55 1
    53   25   56 1
    54   26   31 ar
    55   26   27 ar
    56   27   28 ar
    57   27   57 1
    58   28   29 ar
    59   28   58 1
    60   29   30 ar
    61   29   32 1
    62   30   31 ar
    63   30   59 1
    64   31   60 1
@<TRIPOS>MOLECULE
CHEMBL186805__1
   60    64     0     0     0
SMALL
USER_CHARGES

@<TRIPOS>ATOM
      1 C1         -0.0703    2.0099   -0.3534 C.3       1 <0>        -0.1511
      2 C2         -0.1680    0.5116   -0.0590 C.3       1 <0>        -0.0091
      3 C3         -1.6282    0.0782   -0.2670 C.3       1 <0>        -0.0659
      4 C4         -2.3470   -0.5084    0.9265 C.2       1 <0>        -0.2062
      5 C5         -3.6502   -0.9656    1.1025 C.2       1 <0>         0.0672
      6 N1         -3.7849   -1.3776    2.3385 N.2       1 <0>        -0.2814
      7 N2         -2.5681   -1.2004    3.0079 N.pl3     1 <0>        -0.3230
      8 C6         -1.6746   -0.6633    2.1185 C.2       1 <0>         0.1081
      9 C7         -0.2632   -0.2908    2.2670 C.2       1 <0>        -0.1213
     10 C8          0.4464    0.2584    1.3007 C.2       1 <0>        -0.0540
     11 C9          1.9037    0.5983    1.5063 C.3       1 <0>        -0.0842
     12 C10         2.7188   -0.0984    0.4100 C.3       1 <0>        -0.1150
     13 C11         2.1479    0.2690   -0.9605 C.3       1 <0>        -0.1262
     14 C12         0.7044   -0.2243   -1.0766 C.3       1 <0>        -0.1067
     15 H1          0.6693   -1.2955   -0.8781 H         1 <0>         0.0759
     16 C13         0.1834    0.0504   -2.4887 C.3       1 <0>         0.1069
     17 C14         1.1667   -0.5167   -3.5145 C.3       1 <0>        -0.1499
     18 C15         0.7106   -0.1342   -4.9239 C.3       1 <0>        -0.0782
     19 C16         1.6792   -0.6928   -5.9343 C.ar      1 <0>        -0.0820
     20 C17         2.7729    0.0544   -6.3298 C.ar      1 <0>        -0.1194
     21 C18         3.6614   -0.4580   -7.2566 C.ar      1 <0>        -0.1180
     22 C19         3.4564   -1.7178   -7.7876 C.ar      1 <0>        -0.1257
     23 C20         2.3631   -2.4652   -7.3914 C.ar      1 <0>        -0.1180
     24 C21         1.4770   -1.9546   -6.4614 C.ar      1 <0>        -0.1185
     25 O1         -1.0915   -0.5731   -2.6557 O.3       1 <0>        -0.5447
     26 C22        -2.3097   -1.5165    4.3483 C.ar      1 <0>         0.1504
     27 C23        -1.0576   -1.9855    4.7231 C.ar      1 <0>        -0.1060
     28 C24        -0.8048   -2.2960    6.0448 C.ar      1 <0>        -0.1303
     29 C25        -1.7991   -2.1400    6.9961 C.ar      1 <0>         0.0957
     30 C26        -3.0487   -1.6729    6.6243 C.ar      1 <0>        -0.1316
     31 C27        -3.3037   -1.3558    5.3046 C.ar      1 <0>        -0.0843
     32 F1         -1.5498   -2.4444    8.2886 F         1 <0>        -0.1338
     33 H2          0.9767    2.3129   -0.3522 H         1 <0>         0.0634
     34 H3         -0.5075    2.2175   -1.3301 H         1 <0>         0.0649
     35 H4         -0.6106    2.5666    0.4123 H         1 <0>         0.0564
     36 H5         -2.1919    0.9481   -0.6041 H         1 <0>         0.0690
     37 H6         -1.6482   -0.6611   -1.0676 H         1 <0>         0.1233
     38 H7         -4.4212   -0.9782    0.3464 H         1 <0>         0.1896
     39 H8          0.2126   -0.4555    3.2225 H         1 <0>         0.1157
     40 H9          2.0426    1.6773    1.4381 H         1 <0>         0.0822
     41 H10         2.2286    0.2465    2.4855 H         1 <0>         0.0737
     42 H11         3.7581    0.2246    0.4692 H         1 <0>         0.0701
     43 H12         2.6654   -1.1783    0.5482 H         1 <0>         0.0645
     44 H13         2.1710    1.3518   -1.0834 H         1 <0>         0.0728
     45 H14         2.7523   -0.1946   -1.7401 H         1 <0>         0.0730
     46 H15         0.0841    1.1258   -2.6365 H         1 <0>         0.1058
     47 H16         2.1601   -0.1074   -3.3305 H         1 <0>         0.0804
     48 H17         1.1989   -1.6026   -3.4252 H         1 <0>         0.0677
     49 H18        -0.2827   -0.5435   -5.1080 H         1 <0>         0.0787
     50 H19         0.6784    0.9517   -5.0132 H         1 <0>         0.0717
     51 H20         2.9331    1.0385   -5.9149 H         1 <0>         0.1202
     52 H21         4.5155    0.1260   -7.5660 H         1 <0>         0.1211
     53 H22         4.1501   -2.1178   -8.5122 H         1 <0>         0.1206
     54 H23         2.2027   -3.4493   -7.8066 H         1 <0>         0.1211
     55 H24         0.6249   -2.5401   -6.1492 H         1 <0>         0.1204
     56 H25        -1.0621   -1.5395   -2.6384 H         1 <0>         0.3750
     57 H26        -0.2821   -2.1076    3.9815 H         1 <0>         0.1417
     58 H27         0.1688   -2.6611    6.3366 H         1 <0>         0.1465
     59 H28        -3.8228   -1.5523    7.3676 H         1 <0>         0.1465
     60 H29        -4.2768   -0.9870    5.0158 H         1 <0>         0.1442
@<TRIPOS>BOND
     1    1    2 1
     2    1   33 1
     3    1   34 1
     4    1   35 1
     5    2   10 1
     6    2   14 1
     7    2    3 1
     8    3    4 1
     9    3   36 1
    10    3   37 1
    11    4    8 2
    12    4    5 1
    13    5    6 2
    14    5   38 1
    15    6    7 1
    16    7    8 1
    17    7   26 1
    18    8    9 1
    19    9   10 2
    20    9   39 1
    21   10   11 1
    22   11   12 1
    23   11   40 1
    24   11   41 1
    25   12   13 1
    26   12   42 1
    27   12   43 1
    28   13   14 1
    29   13   44 1
    30   13   45 1
    31   14   15 1
    32   14   16 1
    33   16   17 1
    34   16   25 1
    35   16   46 1
    36   17   18 1
    37   17   47 1
    38   17   48 1
    39   18   19 1
    40   18   49 1
    41   18   50 1
    42   19   24 ar
    43   19   20 ar
    44   20   21 ar
    45   20   51 1
    46   21   22 ar
    47   21   52 1
    48   22   23 ar
    49   22   53 1
    50   23   24 ar
    51   23   54 1
    52   24   55 1
    53   25   56 1
    54   26   31 ar
    55   26   27 ar
    56   27   28 ar
    57   27   57 1
    58   28   29 ar
    59   28   58 1
    60   29   30 ar
    61   29   32 1
    62   30   31 ar
    63   30   59 1
    64   31   60 1
@<TRIPOS>MOLECULE
CHEMBL303071
   51    54     0     0     0
SMALL
USER_CHARGES

@<TRIPOS>ATOM
      1 C1         -0.0173    1.4248    0.0099 C.3       1 <0>         0.0232
      2 O1          0.0021   -0.0041    0.0020 O.3       1 <0>        -0.3002
      3 C2          0.6256   -0.6182    1.0412 C.ar      1 <0>         0.1438
      4 C3          1.2036    0.1350    2.0535 C.ar      1 <0>        -0.2301
      5 C4          1.8368   -0.4924    3.1101 C.ar      1 <0>        -0.0756
      6 C5          1.9012   -1.8730    3.1730 C.ar      1 <0>        -0.1762
      7 C6          1.3290   -2.6396    2.1732 C.ar      1 <0>         0.1508
      8 C7          0.6846   -2.0074    1.1015 C.ar      1 <0>        -0.0937
      9 C8          0.0883   -2.8593    0.0462 C.ar      1 <0>        -0.1519
     10 C9         -0.8252   -2.3575   -0.8717 C.ar      1 <0>        -0.0337
     11 C10        -1.3572   -3.1942   -1.8323 C.ar      1 <0>        -0.2592
     12 C11        -0.9794   -4.5313   -1.8777 C.ar      1 <0>         0.2940
     13 C12        -0.0630   -5.0334   -0.9600 C.ar      1 <0>        -0.1664
     14 C13         0.4729   -4.2030   -0.0021 C.ar      1 <0>        -0.0732
     15 C14         1.4786   -4.7133    0.9959 C.3       1 <0>         0.1485
     16 O2          1.3748   -3.9948    2.2190 O.3       1 <0>        -0.3066
     17 C15         2.8891   -4.5325    0.4312 C.3       1 <0>        -0.1050
     18 C16         3.0202   -5.3184   -0.8749 C.3       1 <0>        -0.1161
     19 C17         4.4306   -5.1376   -1.4396 C.3       1 <0>        -0.1170
     20 C18         5.4552   -5.6551   -0.4280 C.3       1 <0>        -0.1184
     21 C19         5.3241   -4.8691    0.8782 C.3       1 <0>        -0.1169
     22 C20         3.9137   -5.0499    1.4428 C.3       1 <0>        -0.1088
     23 N1         -1.5230   -5.3745   -2.8494 N.2       1 <0>        -1.0953
     24 S1         -2.6149   -4.7808   -3.9438 S.o2      1 <0>         2.5254
     25 O3         -3.7369   -4.3931   -3.1628 O.2       1 <0>        -1.0290
     26 O4         -1.8882   -3.8186   -4.6956 O.2       1 <0>        -1.0290
     27 C21        -3.0428   -6.1986   -4.9913 C.3       1 <0>        -0.6378
     28 H1          1.0053    1.8021    0.0021 H         1 <0>         0.0518
     29 H2         -0.5445    1.7859   -0.8732 H         1 <0>         0.0967
     30 H3         -0.5275    1.7763    0.9067 H         1 <0>         0.0520
     31 H4          1.1589    1.2134    2.0155 H         1 <0>         0.1235
     32 H5          2.2856    0.1005    3.8933 H         1 <0>         0.1230
     33 H6          2.3982   -2.3527    4.0033 H         1 <0>         0.1254
     34 H7         -1.1179   -1.3186   -0.8341 H         1 <0>         0.1242
     35 H8         -2.0679   -2.8098   -2.5489 H         1 <0>         0.1032
     36 H9          0.2273   -6.0730   -0.9986 H         1 <0>         0.1153
     37 H10         1.2993   -5.7726    1.1796 H         1 <0>         0.1168
     38 H11         3.0706   -3.4750    0.2388 H         1 <0>         0.0728
     39 H12         2.8386   -6.3758   -0.6825 H         1 <0>         0.0622
     40 H13         2.2902   -4.9497   -1.5956 H         1 <0>         0.0809
     41 H14         4.5240   -5.6975   -2.3701 H         1 <0>         0.0604
     42 H15         4.6121   -4.0801   -1.6320 H         1 <0>         0.0585
     43 H16         5.2737   -6.7125   -0.2355 H         1 <0>         0.0599
     44 H17         6.4600   -5.5262   -0.8303 H         1 <0>         0.0549
     45 H18         6.0540   -5.2378    1.5989 H         1 <0>         0.0570
     46 H19         5.5056   -3.8117    0.6857 H         1 <0>         0.0583
     47 H20         3.8203   -4.4900    2.3734 H         1 <0>         0.0652
     48 H21         3.7321   -6.1074    1.6353 H         1 <0>         0.0611
     49 H22        -3.4765   -6.9871   -4.3762 H         1 <0>         0.1151
     50 H23        -3.7652   -5.8878   -5.7461 H         1 <0>         0.1010
     51 H24        -2.1439   -6.5729   -5.4811 H         1 <0>         0.1150
@<TRIPOS>BOND
     1    1    2 1
     2    1   28 1
     3    1   29 1
     4    1   30 1
     5    2    3 1
     6    3    8 ar
     7    3    4 ar
     8    4    5 ar
     9    4   31 1
    10    5    6 ar
    11    5   32 1
    12    6    7 ar
    13    6   33 1
    14    7   16 1
    15    7    8 ar
    16    8    9 1
    17    9   14 ar
    18    9   10 ar
    19   10   11 ar
    20   10   34 1
    21   11   12 ar
    22   11   35 1
    23   12   13 ar
    24   12   23 1
    25   13   14 ar
    26   13   36 1
    27   14   15 1
    28   15   16 1
    29   15   17 1
    30   15   37 1
    31   17   22 1
    32   17   18 1
    33   17   38 1
    34   18   19 1
    35   18   39 1
    36   18   40 1
    37   19   20 1
    38   19   41 1
    39   19   42 1
    40   20   21 1
    41   20   43 1
    42   20   44 1
    43   21   22 1
    44   21   45 1
    45   21   46 1
    46   22   47 1
    47   22   48 1
    48   23   24 1
    49   24   25 2
    50   24   26 2
    51   24   27 1
    52   27   49 1
    53   27   50 1
    54   27   51 1
@<TRIPOS>MOLECULE
CHEMBL303071__1
   51    54     0     0     0
SMALL
USER_CHARGES

@<TRIPOS>ATOM
      1 C1         -0.0173    1.4248    0.0099 C.3       1 <0>         0.0234
      2 O1          0.0021   -0.0041    0.0020 O.3       1 <0>        -0.3001
      3 C2          0.6256   -0.6182    1.0412 C.ar      1 <0>         0.1438
      4 C3          1.2036    0.1350    2.0535 C.ar      1 <0>        -0.2314
      5 C4          1.8373   -0.4924    3.1098 C.ar      1 <0>        -0.0740
      6 C5          1.9048   -1.8729    3.1709 C.ar      1 <0>        -0.1828
      7 C6          1.3353   -2.6395    2.1695 C.ar      1 <0>         0.1601
      8 C7          0.6846   -2.0074    1.1015 C.ar      1 <0>        -0.0917
      9 C8          0.0712   -2.8596    0.0563 C.ar      1 <0>        -0.1494
     10 C9         -0.3024   -2.3486   -1.1799 C.ar      1 <0>        -0.0346
     11 C10        -0.8644   -3.1859   -2.1229 C.ar      1 <0>        -0.2594
     12 C11        -1.0534   -4.5325   -1.8341 C.ar      1 <0>         0.2944
     13 C12        -0.6814   -5.0438   -0.5954 C.ar      1 <0>        -0.1684
     14 C13        -0.1235   -4.2131    0.3495 C.ar      1 <0>        -0.0734
     15 C14         0.2757   -4.7336    1.7051 C.3       1 <0>         0.1467
     16 O2          1.3962   -3.9943    2.2064 O.3       1 <0>        -0.3073
     17 C15        -0.9052   -4.5964    2.6682 C.3       1 <0>        -0.1056
     18 C16        -1.3019   -3.1232    2.7822 C.3       1 <0>        -0.1290
     19 C17        -2.4828   -2.9861    3.7453 C.3       1 <0>        -0.1158
     20 C18        -2.0806   -3.5141    5.1238 C.3       1 <0>        -0.1171
     21 C19        -1.6839   -4.9873    5.0098 C.3       1 <0>        -0.1168
     22 C20        -0.5030   -5.1244    4.0467 C.3       1 <0>        -0.1096
     23 N1         -1.6202   -5.3759   -2.7923 N.2       1 <0>        -1.0961
     24 S1         -2.0652   -4.7711   -4.2683 S.o2      1 <0>         2.5254
     25 O3         -3.0982   -3.8384   -3.9815 O.2       1 <0>        -1.0289
     26 O4         -0.8491   -4.3440   -4.8667 O.2       1 <0>        -1.0289
     27 C21        -2.7399   -6.1929   -5.1705 C.3       1 <0>        -0.6377
     28 H1          1.0053    1.8021    0.0021 H         1 <0>         0.0518
     29 H2         -0.5445    1.7859   -0.8732 H         1 <0>         0.0964
     30 H3         -0.5275    1.7763    0.9067 H         1 <0>         0.0517
     31 H4          1.1586    1.2134    2.0158 H         1 <0>         0.1229
     32 H5          2.2834    0.1004    3.8947 H         1 <0>         0.1222
     33 H6          2.4026   -2.3526    4.0006 H         1 <0>         0.1247
     34 H7         -0.1539   -1.3023   -1.4024 H         1 <0>         0.1244
     35 H8         -1.1577   -2.7943   -3.0857 H         1 <0>         0.1031
     36 H9         -0.8302   -6.0906   -0.3753 H         1 <0>         0.1144
     37 H10         0.5497   -5.7853    1.6215 H         1 <0>         0.1170
     38 H11        -1.7504   -5.1722    2.2910 H         1 <0>         0.0852
     39 H12        -0.4567   -2.5474    3.1593 H         1 <0>         0.0721
     40 H13        -1.5885   -2.7470    1.8001 H         1 <0>         0.0761
     41 H14        -2.7655   -1.9365    3.8265 H         1 <0>         0.0559
     42 H15        -3.3280   -3.5618    3.3681 H         1 <0>         0.0585
     43 H16        -1.2354   -2.9383    5.5010 H         1 <0>         0.0589
     44 H17        -2.9219   -3.4164    5.8099 H         1 <0>         0.0543
     45 H18        -1.3973   -5.3635    5.9919 H         1 <0>         0.0569
     46 H19        -2.5291   -5.5631    4.6326 H         1 <0>         0.0596
     47 H20        -0.2203   -6.1740    3.9655 H         1 <0>         0.0602
     48 H21         0.3422   -4.5487    4.4239 H         1 <0>         0.0665
     49 H22        -3.5936   -6.5967   -4.6262 H         1 <0>         0.1150
     50 H23        -3.0592   -5.8751   -6.1631 H         1 <0>         0.1011
     51 H24        -1.9724   -6.9612   -5.2643 H         1 <0>         0.1151
@<TRIPOS>BOND
     1    1    2 1
     2    1   28 1
     3    1   29 1
     4    1   30 1
     5    2    3 1
     6    3    8 ar
     7    3    4 ar
     8    4    5 ar
     9    4   31 1
    10    5    6 ar
    11    5   32 1
    12    6    7 ar
    13    6   33 1
    14    7   16 1
    15    7    8 ar
    16    8    9 1
    17    9   14 ar
    18    9   10 ar
    19   10   11 ar
    20   10   34 1
    21   11   12 ar
    22   11   35 1
    23   12   13 ar
    24   12   23 1
    25   13   14 ar
    26   13   36 1
    27   14   15 1
    28   15   16 1
    29   15   17 1
    30   15   37 1
    31   17   22 1
    32   17   18 1
    33   17   38 1
    34   18   19 1
    35   18   39 1
    36   18   40 1
    37   19   20 1
    38   19   41 1
    39   19   42 1
    40   20   21 1
    41   20   43 1
    42   20   44 1
    43   21   22 1
    44   21   45 1
    45   21   46 1
    46   22   47 1
    47   22   48 1
    48   23   24 1
    49   24   25 2
    50   24   26 2
    51   24   27 1
    52   27   49 1
    53   27   50 1
    54   27   51 1
@<TRIPOS>MOLECULE
CHEMBL549778
   71    76     0     0     0
SMALL
USER_CHARGES

@<TRIPOS>ATOM
      1 C1         -0.2829    1.1733   -0.4765 C.3       1 <0>        -0.1332
      2 C2          0.0225   -0.2135    0.1010 C.3       1 <0>        -0.0682
      3 C3          0.6301   -1.0302   -1.0075 C.3       1 <0>         0.0837
      4 O1          1.7534   -0.4353   -1.6174 O.3       1 <0>        -0.3465
      5 C4          2.8152   -0.1968   -0.7123 C.3       1 <0>         0.1653
      6 H1          2.7284   -1.0077    0.0498 H         1 <0>         0.0602
      7 C5          2.6333    1.0623    0.0384 C.2       1 <0>        -0.0856
      8 C6          2.9977    2.2521   -0.4637 C.2       1 <0>        -0.0839
      9 C7          3.4476    2.3958   -1.8999 C.3       1 <0>        -0.0792
     10 C8          2.8648    3.6854   -2.4932 C.3       1 <0>        -0.1683
     11 C9          3.1697    4.8422   -1.5806 C.2       1 <0>         0.3866
     12 O2          3.5091    5.9066   -2.0491 O.2       1 <0>        -0.4667
     13 C10         3.0639    4.6902   -0.1886 C.2       1 <0>        -0.2419
     14 C11         2.9217    3.4629    0.3561 C.2       1 <0>         0.0156
     15 C12         2.6712    3.3224    1.8411 C.3       1 <0>        -0.0977
     16 C13         1.5310    2.3042    1.9929 C.3       1 <0>        -0.1049
     17 C14         1.9207    1.0024    1.3550 C.3       1 <0>        -0.0438
     18 H2          2.6924    0.5953    2.0301 H         1 <0>         0.0709
     19 C15         0.8420   -0.0611    1.3535 C.3       1 <0>        -0.0711
     20 H3          1.3084   -1.0350    1.5891 H         1 <0>         0.0749
     21 C16        -0.2076    0.2508    2.4570 C.3       1 <0>        -0.1164
     22 C17        -1.3354   -0.7490    2.0923 C.3       1 <0>        -0.1465
     23 C18        -1.3473   -0.7691    0.5473 C.3       1 <0>         0.2578
     24 C19        -1.5596   -2.1437    0.0746 C.1       1 <0>        -0.1887
     25 C20        -1.7293   -3.2422   -0.3031 C.1       1 <0>        -0.1089
     26 C21        -1.9362   -4.5822   -0.7639 C.ar      1 <0>         0.0054
     27 C22        -0.9517   -5.2245   -1.5157 C.ar      1 <0>        -0.0939
     28 C23        -1.1571   -6.5158   -1.9562 C.ar      1 <0>        -0.1195
     29 C24        -2.3360   -7.1737   -1.6541 C.ar      1 <0>        -0.1068
     30 C25        -3.3161   -6.5424   -0.9091 C.ar      1 <0>        -0.1187
     31 C26        -3.1208   -5.2532   -0.4581 C.ar      1 <0>        -0.0922
     32 O3         -2.3875    0.0835    0.0584 O.3       1 <0>        -0.5347
     33 C27         4.1783   -0.3580   -1.3343 C.ar      1 <0>        -0.1163
     34 C28         5.2812   -0.5822   -0.5311 C.ar      1 <0>        -0.0660
     35 C29         6.5320   -0.7298   -1.0987 C.ar      1 <0>        -0.1505
     36 C30         6.6808   -0.6534   -2.4759 C.ar      1 <0>         0.1325
     37 C31         5.5726   -0.4288   -3.2797 C.ar      1 <0>        -0.2095
     38 C32         4.3232   -0.2870   -2.7075 C.ar      1 <0>        -0.0534
     39 O4          7.9103   -0.7979   -3.0367 O.3       1 <0>        -0.3172
     40 C33         7.9885   -0.7075   -4.4607 C.3       1 <0>         0.0262
     41 H4          0.6516    1.6828   -0.7116 H         1 <0>         0.0660
     42 H5         -0.8767    1.0662   -1.3842 H         1 <0>         0.0600
     43 H6         -0.8407    1.7571    0.2558 H         1 <0>         0.0617
     44 H7          0.9469   -1.9984   -0.6185 H         1 <0>         0.0471
     45 H8         -0.1103   -1.1770   -1.7982 H         1 <0>         0.0990
     46 H9          4.5330    2.4329   -1.9480 H         1 <0>         0.0790
     47 H10         3.0654    1.5661   -2.4977 H         1 <0>         0.0967
     48 H11         3.3152    3.8662   -3.4691 H         1 <0>         0.0938
     49 H12         1.7871    3.5794   -2.6018 H         1 <0>         0.0997
     50 H13         3.0965    5.5615    0.4496 H         1 <0>         0.1369
     51 H14         3.5665    2.9568    2.3386 H         1 <0>         0.0887
     52 H15         2.3687    4.2813    2.2585 H         1 <0>         0.0876
     53 H16         1.3398    2.1490    3.0572 H         1 <0>         0.0821
     54 H17         0.6344    2.7086    1.5279 H         1 <0>         0.0755
     55 H18         0.1989    0.0353    3.4459 H         1 <0>         0.0770
     56 H19        -0.5598    1.2774    2.3959 H         1 <0>         0.0851
     57 H20        -1.1043   -1.7417    2.4814 H         1 <0>         0.0777
     58 H21        -2.2940   -0.4042    2.4776 H         1 <0>         0.0818
     59 H22        -0.0311   -4.7119   -1.7525 H         1 <0>         0.1259
     60 H23        -0.3960   -7.0139   -2.5385 H         1 <0>         0.1291
     61 H24        -2.4920   -8.1842   -2.0016 H         1 <0>         0.1274
     62 H25        -4.2342   -7.0614   -0.6766 H         1 <0>         0.1295
     63 H26        -3.8848   -4.7631    0.1272 H         1 <0>         0.1268
     64 H27        -3.2783   -0.2042    0.3008 H         1 <0>         0.3780
     65 H28         5.1649   -0.6416    0.5410 H         1 <0>         0.1278
     66 H29         7.3933   -0.9042   -0.4709 H         1 <0>         0.1326
     67 H30         5.6859   -0.3689   -4.3520 H         1 <0>         0.1298
     68 H31         3.4595   -0.1166   -3.3330 H         1 <0>         0.1338
     69 H32         7.3691   -1.4846   -4.9087 H         1 <0>         0.0565
     70 H33         7.6328    0.2712   -4.7827 H         1 <0>         0.0569
     71 H34         9.0231   -0.8402   -4.7769 H         1 <0>         0.1013
@<TRIPOS>BOND
     1    1    2 1
     2    1   41 1
     3    1   42 1
     4    1   43 1
     5    2   19 1
     6    2   23 1
     7    2    3 1
     8    3    4 1
     9    3   44 1
    10    3   45 1
    11    4    5 1
    12    5    6 1
    13    5    7 1
    14    5   33 1
    15    7   17 1
    16    7    8 2
    17    8   14 1
    18    8    9 1
    19    9   10 1
    20    9   46 1
    21    9   47 1
    22   10   11 1
    23   10   48 1
    24   10   49 1
    25   11   12 2
    26   11   13 1
    27   13   14 2
    28   13   50 1
    29   14   15 1
    30   15   16 1
    31   15   51 1
    32   15   52 1
    33   16   17 1
    34   16   53 1
    35   16   54 1
    36   17   18 1
    37   17   19 1
    38   19   20 1
    39   19   21 1
    40   21   22 1
    41   21   55 1
    42   21   56 1
    43   22   23 1
    44   22   57 1
    45   22   58 1
    46   23   24 1
    47   23   32 1
    48   24   25 3
    49   25   26 1
    50   26   31 ar
    51   26   27 ar
    52   27   28 ar
    53   27   59 1
    54   28   29 ar
    55   28   60 1
    56   29   30 ar
    57   29   61 1
    58   30   31 ar
    59   30   62 1
    60   31   63 1
    61   32   64 1
    62   33   38 ar
    63   33   34 ar
    64   34   35 ar
    65   34   65 1
    66   35   36 ar
    67   35   66 1
    68   36   37 ar
    69   36   39 1
    70   37   38 ar
    71   37   67 1
    72   38   68 1
    73   39   40 1
    74   40   69 1
    75   40   70 1
    76   40   71 1
@<TRIPOS>MOLECULE
CHEMBL270668
   66    70     0     0     0
SMALL
USER_CHARGES

@<TRIPOS>ATOM
      1 C1         -0.0184    1.5028    0.0103 C.3       1 <0>        -0.1268
      2 C2          0.0021   -0.0041    0.0020 C.ar      1 <0>        -0.0268
      3 C3          0.0057   -0.6887   -1.1989 C.ar      1 <0>        -0.1417
      4 C4          0.0245   -2.0709   -1.2065 C.ar      1 <0>        -0.0149
      5 C5          0.0400   -2.7685   -0.0132 C.ar      1 <0>        -0.6854
      6 C6          0.0373   -2.0839    1.1877 C.ar      1 <0>        -0.0164
      7 C7          0.0229   -0.7016    1.1953 C.ar      1 <0>        -0.1418
      8 S1          0.0628   -4.5303   -0.0229 S.o2      1 <0>         2.6888
      9 O1         -0.4759   -4.9503    1.2232 O.2       1 <0>        -0.9503
     10 O2         -0.4897   -4.9367   -1.2674 O.2       1 <0>        -0.9514
     11 N1          1.6509   -4.9994   -0.0343 N.pl3     1 <0>        -0.9974
     12 C8          2.3466   -5.1938   -1.3103 C.3       1 <0>         0.1138
     13 C9          3.4581   -6.2340   -1.1217 C.3       1 <0>        -0.0896
     14 C10         4.4042   -5.7219   -0.0567 C.2       1 <0>        -0.0683
     15 C11         5.7047   -5.9946   -0.1589 C.2       1 <0>        -0.0933
     16 C12         6.5849   -5.5173    0.9198 C.2       1 <0>         0.1450
     17 C13         6.0521   -5.0902    2.1318 C.2       1 <0>        -0.2134
     18 C14         7.1030   -4.7039    2.9396 C.2       1 <0>         0.0713
     19 N2          8.2261   -4.8894    2.2815 N.2       1 <0>        -0.2982
     20 N3          7.9275   -5.4120    1.0113 N.pl3     1 <0>        -0.3039
     21 C15         8.8548   -5.7600    0.0201 C.ar      1 <0>         0.1578
     22 C16         8.6083   -6.8431   -0.8130 C.ar      1 <0>        -0.1050
     23 C17         9.5235   -7.1845   -1.7892 C.ar      1 <0>        -0.1296
     24 C18        10.6865   -6.4473   -1.9376 C.ar      1 <0>         0.0958
     25 C19        10.9342   -5.3667   -1.1076 C.ar      1 <0>        -0.1346
     26 C20        10.0188   -5.0186   -0.1339 C.ar      1 <0>        -0.0812
     27 F1         11.5808   -6.7831   -2.8929 F         1 <0>        -0.1346
     28 C21         4.5674   -5.1088    2.3837 C.3       1 <0>        -0.0241
     29 C22         3.8415   -4.8774    1.0564 C.3       1 <0>        -0.0222
     30 C23         2.3586   -5.2133    1.2312 C.3       1 <0>         0.1346
     31 C24         3.9530   -3.4005    0.6729 C.3       1 <0>         0.0721
     32 O3          5.3262   -3.0650    0.4635 O.3       1 <0>        -0.3544
     33 C25         5.5421   -1.7003    0.0989 C.3       1 <0>         0.0646
     34 C26         7.0395   -1.4560   -0.0987 C.3       1 <0>         0.0669
     35 O4          7.5045   -2.2227   -1.2113 O.3       1 <0>        -0.3771
     36 C27         8.8986   -2.0658   -1.4833 C.3       1 <0>         0.0329
     37 H1          1.0042    1.8801    0.0026 H         1 <0>         0.0795
     38 H2         -0.5455    1.8639   -0.8728 H         1 <0>         0.0738
     39 H3         -0.5286    1.8543    0.9071 H         1 <0>         0.0738
     40 H4         -0.0064   -0.1436   -2.1312 H         1 <0>         0.1329
     41 H5          0.0266   -2.6057   -2.1448 H         1 <0>         0.1396
     42 H6          0.0491   -2.6289    2.1200 H         1 <0>         0.1396
     43 H7          0.0245   -0.1667    2.1335 H         1 <0>         0.1330
     44 H8          1.6397   -5.5477   -2.0607 H         1 <0>         0.0987
     45 H9          2.7827   -4.2492   -1.6354 H         1 <0>         0.0696
     46 H10         3.0248   -7.1825   -0.8042 H         1 <0>         0.0927
     47 H11         3.9977   -6.3704   -2.0589 H         1 <0>         0.0932
     48 H12         6.0977   -6.5451   -1.0009 H         1 <0>         0.1297
     49 H13         7.0170   -4.3144    3.9432 H         1 <0>         0.1826
     50 H14         7.7017   -7.4185   -0.6975 H         1 <0>         0.1406
     51 H15         9.3324   -8.0271   -2.4372 H         1 <0>         0.1460
     52 H16        11.8419   -4.7933   -1.2246 H         1 <0>         0.1443
     53 H17        10.2102   -4.1731    0.5102 H         1 <0>         0.1405
     54 H18         4.2784   -6.0760    2.7948 H         1 <0>         0.0783
     55 H19         4.3059   -4.3174    3.0862 H         1 <0>         0.0824
     56 H20         1.9287   -4.5721    2.0006 H         1 <0>         0.0882
     57 H21         2.2592   -6.2565    1.5310 H         1 <0>         0.0854
     58 H22         3.3911   -3.2196   -0.2434 H         1 <0>         0.0553
     59 H23         3.5469   -2.7850    1.4756 H         1 <0>         0.0518
     60 H24         5.0132   -1.4842   -0.8293 H         1 <0>         0.0527
     61 H25         5.1690   -1.0496    0.8897 H         1 <0>         0.0594
     62 H26         7.2128   -0.3969   -0.2895 H         1 <0>         0.0593
     63 H27         7.5783   -1.7562    0.8000 H         1 <0>         0.0542
     64 H28         9.1105   -1.0194   -1.7028 H         1 <0>         0.0388
     65 H29         9.4760   -2.3787   -0.6133 H         1 <0>         0.0391
     66 H30         9.1728   -2.6797   -2.3412 H         1 <0>         0.0838
@<TRIPOS>BOND
     1    1    2 1
     2    1   37 1
     3    1   38 1
     4    1   39 1
     5    2    7 ar
     6    2    3 ar
     7    3    4 ar
     8    3   40 1
     9    4    5 ar
    10    4   41 1
    11    5    6 ar
    12    5    8 1
    13    6    7 ar
    14    6   42 1
    15    7   43 1
    16    8    9 2
    17    8   10 2
    18    8   11 1
    19   11   30 1
    20   11   12 1
    21   12   13 1
    22   12   44 1
    23   12   45 1
    24   13   14 1
    25   13   46 1
    26   13   47 1
    27   14   29 1
    28   14   15 2
    29   15   16 1
    30   15   48 1
    31   16   20 1
    32   16   17 2
    33   17   18 1
    34   17   28 1
    35   18   19 2
    36   18   49 1
    37   19   20 1
    38   20   21 1
    39   21   26 ar
    40   21   22 ar
    41   22   23 ar
    42   22   50 1
    43   23   24 ar
    44   23   51 1
    45   24   25 ar
    46   24   27 1
    47   25   26 ar
    48   25   52 1
    49   26   53 1
    50   28   29 1
    51   28   54 1
    52   28   55 1
    53   29   30 1
    54   29   31 1
    55   30   56 1
    56   30   57 1
    57   31   32 1
    58   31   58 1
    59   31   59 1
    60   32   33 1
    61   33   34 1
    62   33   60 1
    63   33   61 1
    64   34   35 1
    65   34   62 1
    66   34   63 1
    67   35   36 1
    68   36   64 1
    69   36   65 1
    70   36   66 1
@<TRIPOS>MOLECULE
CHEMBL489788
   43    46     0     0     0
SMALL
USER_CHARGES

@<TRIPOS>ATOM
      1 C1         -1.3942    2.3574   -0.0369 C.3       1 <0>        -0.1908
      2 C2         -1.0201    0.8770    0.0601 C.3       1 <0>         0.2554
      3 C3         -2.2674    0.0643   -0.0999 C.ar      1 <0>        -0.1362
      4 C4         -2.5534   -0.3610   -1.3922 C.ar      1 <0>        -0.0452
      5 C5         -3.6828   -1.1252   -1.6657 C.ar      1 <0>        -0.0446
      6 C6         -4.5421   -1.4689   -0.6187 C.ar      1 <0>        -0.0828
      7 C7         -4.2585   -1.0468    0.6535 C.ar      1 <0>        -0.1554
      8 C8         -3.1184   -0.2719    0.9350 C.ar      1 <0>         0.1942
      9 N1         -2.9672    0.0866    2.2553 N.am      1 <0>        -0.6463
     10 C9         -2.0185    0.6466    2.9572 C.2       1 <0>         0.4969
     11 O1         -2.1423    0.6195    4.1634 O.2       1 <0>        -0.5248
     12 C10        -0.7990    1.3150    2.4222 C.3       1 <0>         0.0497
     13 O2         -0.3296    0.6757    1.2572 O.3       1 <0>        -0.3462
     14 C11        -3.9706   -1.5674   -3.0452 C.2       1 <0>         0.0967
     15 C12        -3.4654   -1.0017   -4.1958 C.2       1 <0>        -0.1769
     16 C13        -3.9813   -1.7126   -5.2786 C.2       1 <0>        -0.1063
     17 C14        -4.7967   -2.7052   -4.7721 C.2       1 <0>         0.0555
     18 N2         -4.7786   -2.6112   -3.3987 N.pl3     1 <0>        -0.4152
     19 C15        -5.5065   -3.4815   -2.4719 C.3       1 <0>         0.0551
     20 C16        -5.5278   -3.6675   -5.5404 C.1       1 <0>         0.2768
     21 N3         -6.1078   -4.4308   -6.1498 N.1       1 <0>        -0.4035
     22 C17        -0.0941    0.5482   -1.0825 C.2       1 <0>        -0.0195
     23 C18         0.9083   -0.3481   -1.0498 C.2       1 <0>        -0.1665
     24 C19         1.5115   -0.3349   -2.3284 C.2       1 <0>        -0.2131
     25 C20         0.8416    0.5687   -3.0660 C.2       1 <0>        -0.0307
     26 O3         -0.1335    1.0963   -2.3080 O.3       1 <0>        -0.1702
     27 H1         -0.4879    2.9628   -0.0223 H         1 <0>         0.0808
     28 H2         -1.9350    2.5353   -0.9664 H         1 <0>         0.0858
     29 H3         -2.0261    2.6286    0.8088 H         1 <0>         0.0690
     30 H4         -1.8864   -0.0935   -2.1983 H         1 <0>         0.1426
     31 H5         -5.4231   -2.0632   -0.8110 H         1 <0>         0.1371
     32 H6         -4.9258   -1.3151    1.4592 H         1 <0>         0.1359
     33 H7         -3.7483   -0.1262    2.7896 H         1 <0>         0.4025
     34 H8         -1.0352    2.3531    2.1882 H         1 <0>         0.1020
     35 H9         -0.0173    1.2910    3.1815 H         1 <0>         0.1489
     36 H10        -2.7914   -0.1595   -4.2491 H         1 <0>         0.1517
     37 H11        -3.7803   -1.5215   -6.3224 H         1 <0>         0.1545
     38 H12        -6.4505   -3.0109   -2.1971 H         1 <0>         0.0861
     39 H13        -5.7045   -4.4394   -2.9527 H         1 <0>         0.0887
     40 H14        -4.9061   -3.6416   -1.5764 H         1 <0>         0.0979
     41 H15         1.1974   -0.9600   -0.2081 H         1 <0>         0.1511
     42 H16         2.3496   -0.9349   -2.6509 H         1 <0>         0.1512
     43 H17         1.0499    0.8238   -4.0946 H         1 <0>         0.2081
@<TRIPOS>BOND
     1    1    2 1
     2    1   27 1
     3    1   28 1
     4    1   29 1
     5    2   13 1
     6    2    3 1
     7    2   22 1
     8    3    8 ar
     9    3    4 ar
    10    4    5 ar
    11    4   30 1
    12    5    6 ar
    13    5   14 1
    14    6    7 ar
    15    6   31 1
    16    7    8 ar
    17    7   32 1
    18    8    9 1
    19    9   10 am
    20    9   33 1
    21   10   11 2
    22   10   12 1
    23   12   13 1
    24   12   34 1
    25   12   35 1
    26   14   18 1
    27   14   15 2
    28   15   16 1
    29   15   36 1
    30   16   17 2
    31   16   37 1
    32   17   18 1
    33   17   20 1
    34   18   19 1
    35   19   38 1
    36   19   39 1
    37   19   40 1
    38   20   21 3
    39   22   26 1
    40   22   23 2
    41   23   24 1
    42   23   41 1
    43   24   25 2
    44   24   42 1
    45   25   26 1
    46   25   43 1
@<TRIPOS>MOLECULE
CHEMBL489788__1
   43    46     0     0     0
SMALL
USER_CHARGES

@<TRIPOS>ATOM
      1 C1         -0.3595    1.3887   -0.0851 C.3       1 <0>        -0.1460
      2 C2         -0.2506   -0.1370   -0.1228 C.3       1 <0>         0.2570
      3 C3          0.2573   -0.5399   -1.4725 C.ar      1 <0>        -0.1378
      4 C4          0.0329    0.3675   -2.5015 C.ar      1 <0>        -0.0511
      5 C5          0.4605    0.1058   -3.7988 C.ar      1 <0>        -0.0465
      6 C6          1.1282   -1.0921   -4.0668 C.ar      1 <0>        -0.0794
      7 C7          1.3471   -1.9848   -3.0508 C.ar      1 <0>        -0.1567
      8 C8          0.9139   -1.7261   -1.7374 C.ar      1 <0>         0.2017
      9 N1          1.1944   -2.7167   -0.8240 N.am      1 <0>        -0.6461
     10 C9          1.1156   -2.8237    0.4755 C.2       1 <0>         0.4994
     11 O1          1.6571   -3.7853    0.9787 O.2       1 <0>        -0.5252
     12 C10         0.4265   -1.8806    1.4007 C.3       1 <0>         0.0486
     13 O2          0.5365   -0.5482    0.9550 O.3       1 <0>        -0.3447
     14 C11         0.2117    1.0813   -4.8795 C.2       1 <0>         0.0964
     15 C12        -0.7451    2.0731   -4.8667 C.2       1 <0>        -0.1785
     16 C13        -0.6487    2.7694   -6.0707 C.2       1 <0>        -0.1062
     17 C14         0.3685    2.1911   -6.8038 C.2       1 <0>         0.0562
     18 N2          0.8947    1.1585   -6.0605 N.pl3     1 <0>        -0.4151
     19 C15         1.9988    0.2865   -6.4688 C.3       1 <0>         0.0550
     20 C16         0.8039    2.5979   -8.1059 C.1       1 <0>         0.2760
     21 N3          1.1493    2.9206   -9.1389 N.1       1 <0>        -0.4029
     22 C17        -1.6321   -0.7133    0.0516 C.2       1 <0>        -0.0660
     23 C18        -2.4540   -1.1003   -0.9404 C.2       1 <0>        -0.1783
     24 C19        -3.6374   -1.5754   -0.3299 C.2       1 <0>        -0.2138
     25 C20        -3.4679   -1.4503    0.9986 C.2       1 <0>        -0.0323
     26 O3         -2.2492   -0.9329    1.2241 O.3       1 <0>        -0.1668
     27 H1          0.6102    1.8281   -0.3188 H         1 <0>         0.0820
     28 H2         -1.0944    1.7187   -0.8193 H         1 <0>         0.0861
     29 H3         -0.6720    1.7061    0.9098 H         1 <0>         0.0789
     30 H4         -0.4831    1.2923   -2.2898 H         1 <0>         0.1482
     31 H5          1.4695   -1.3125   -5.0675 H         1 <0>         0.1370
     32 H6          1.8636   -2.9093   -3.2632 H         1 <0>         0.1356
     33 H7          1.5287   -3.5248   -1.2435 H         1 <0>         0.4017
     34 H8         -0.6279   -2.1494    1.4632 H         1 <0>         0.0994
     35 H9          0.8734   -1.9631    2.3915 H         1 <0>         0.1453
     36 H10        -1.4435    2.2746   -4.0679 H         1 <0>         0.1527
     37 H11        -1.2584    3.6075   -6.3746 H         1 <0>         0.1546
     38 H12         1.5971   -0.6278   -6.9057 H         1 <0>         0.0859
     39 H13         2.6148    0.8013   -7.2060 H         1 <0>         0.0888
     40 H14         2.6057    0.0371   -5.5985 H         1 <0>         0.0981
     41 H15        -2.2494   -1.0561   -1.9999 H         1 <0>         0.1503
     42 H16        -4.5102   -1.9639   -0.8336 H         1 <0>         0.1517
     43 H17        -4.1881   -1.7233    1.7557 H         1 <0>         0.2066
@<TRIPOS>BOND
     1    1    2 1
     2    1   27 1
     3    1   28 1
     4    1   29 1
     5    2   13 1
     6    2    3 1
     7    2   22 1
     8    3    8 ar
     9    3    4 ar
    10    4    5 ar
    11    4   30 1
    12    5    6 ar
    13    5   14 1
    14    6    7 ar
    15    6   31 1
    16    7    8 ar
    17    7   32 1
    18    8    9 1
    19    9   10 am
    20    9   33 1
    21   10   11 2
    22   10   12 1
    23   12   13 1
    24   12   34 1
    25   12   35 1
    26   14   18 1
    27   14   15 2
    28   15   16 1
    29   15   36 1
    30   16   17 2
    31   16   37 1
    32   17   18 1
    33   17   20 1
    34   18   19 1
    35   19   38 1
    36   19   39 1
    37   19   40 1
    38   20   21 3
    39   22   26 1
    40   22   23 2
    41   23   24 1
    42   23   41 1
    43   24   25 2
    44   24   42 1
    45   25   26 1
    46   25   43 1
@<TRIPOS>MOLECULE
CHEMBL522432
   43    46     0     0     0
SMALL
USER_CHARGES

@<TRIPOS>ATOM
      1 C1         -1.7809    1.9077   -0.1783 C.3       1 <0>        -0.1900
      2 C2         -1.2493    0.4803   -0.0339 C.3       1 <0>         0.2224
      3 C3         -2.3991   -0.4677   -0.1798 C.ar      1 <0>        -0.1316
      4 C4         -2.6225   -0.9587   -1.4610 C.ar      1 <0>        -0.0509
      5 C5         -3.6590   -1.8490   -1.7207 C.ar      1 <0>        -0.0465
      6 C6         -4.4877   -2.2538   -0.6710 C.ar      1 <0>        -0.0848
      7 C7         -4.2661   -1.7668    0.5903 C.ar      1 <0>        -0.1566
      8 C8         -3.2202   -0.8646    0.8578 C.ar      1 <0>         0.1904
      9 N1         -3.1239   -0.4537    2.1679 N.am      1 <0>        -0.6462
     10 C9         -2.2497    0.2263    2.8605 C.2       1 <0>         0.4966
     11 O1         -2.3835    0.2207    4.0660 O.2       1 <0>        -0.5281
     12 C10        -1.1040    1.0078    2.3157 C.3       1 <0>         0.0467
     13 O2         -0.5547    0.3901    1.1742 O.3       1 <0>        -0.3475
     14 C11        -3.8813   -2.3595   -3.0887 C.2       1 <0>         0.0979
     15 C12        -3.4447   -1.7649   -4.2527 C.2       1 <0>        -0.1778
     16 C13        -3.8613   -2.5629   -5.3175 C.2       1 <0>        -0.1058
     17 C14        -4.5485   -3.6366   -4.7867 C.2       1 <0>         0.0545
     18 N2         -4.5500   -3.5053   -3.4162 N.pl3     1 <0>        -0.4153
     19 C15        -5.1681   -4.4358   -2.4683 C.3       1 <0>         0.0557
     20 C16        -5.1488   -4.7027   -5.5308 C.1       1 <0>         0.2768
     21 N3         -5.6250   -5.5484   -6.1211 N.1       1 <0>        -0.4041
     22 C17        -0.2802    0.2215   -1.1586 C.2       1 <0>        -0.1044
     23 C18         0.7249   -0.7167   -1.0166 C.2       1 <0>        -0.1368
     24 C19         1.5799   -0.9252   -2.0475 C.2       1 <0>        -0.1691
     25 S1          0.9715    0.2246   -3.2702 S.3       1 <0>         0.0548
     26 C20        -0.3846    0.9014   -2.3266 C.2       1 <0>        -0.1757
     27 H1         -0.9460    2.6085   -0.1744 H         1 <0>         0.0802
     28 H2         -2.3273    1.9988   -1.1171 H         1 <0>         0.0808
     29 H3         -2.4481    2.1329    0.6537 H         1 <0>         0.0650
     30 H4         -1.9793   -0.6435   -2.2693 H         1 <0>         0.1444
     31 H5         -5.2971   -2.9454   -0.8526 H         1 <0>         0.1350
     32 H6         -4.9094   -2.0828    1.3982 H         1 <0>         0.1336
     33 H7         -3.8832   -0.7348    2.7020 H         1 <0>         0.4009
     34 H8         -1.4489    2.0068    2.0488 H         1 <0>         0.0988
     35 H9         -0.3330    1.0911    3.0817 H         1 <0>         0.1436
     36 H10        -2.8814   -0.8464   -4.3268 H         1 <0>         0.1512
     37 H11        -3.6801   -2.3753   -6.3655 H         1 <0>         0.1544
     38 H12        -6.1678   -4.0841   -2.2135 H         1 <0>         0.0856
     39 H13        -5.2353   -5.4248   -2.9215 H         1 <0>         0.0882
     40 H14        -4.5609   -4.4907   -1.5648 H         1 <0>         0.0975
     41 H15         0.8276   -1.2751   -0.0979 H         1 <0>         0.1384
     42 H16         2.4132   -1.6092   -2.1123 H         1 <0>         0.1871
     43 H17        -1.1014    1.6571   -2.6120 H         1 <0>         0.1903
@<TRIPOS>BOND
     1    1    2 1
     2    1   27 1
     3    1   28 1
     4    1   29 1
     5    2   13 1
     6    2    3 1
     7    2   22 1
     8    3    8 ar
     9    3    4 ar
    10    4    5 ar
    11    4   30 1
    12    5    6 ar
    13    5   14 1
    14    6    7 ar
    15    6   31 1
    16    7    8 ar
    17    7   32 1
    18    8    9 1
    19    9   10 am
    20    9   33 1
    21   10   11 2
    22   10   12 1
    23   12   13 1
    24   12   34 1
    25   12   35 1
    26   14   18 1
    27   14   15 2
    28   15   16 1
    29   15   36 1
    30   16   17 2
    31   16   37 1
    32   17   18 1
    33   17   20 1
    34   18   19 1
    35   19   38 1
    36   19   39 1
    37   19   40 1
    38   20   21 3
    39   22   26 2
    40   22   23 1
    41   23   24 2
    42   23   41 1
    43   24   25 1
    44   24   42 1
    45   25   26 1
    46   26   43 1
@<TRIPOS>MOLECULE
CHEMBL522432__1
   43    46     0     0     0
SMALL
USER_CHARGES

@<TRIPOS>ATOM
      1 C1          0.3407    0.1695    0.2022 C.3       1 <0>        -0.1899
      2 C2          0.3138   -1.3102   -0.1859 C.3       1 <0>         0.2225
      3 C3          0.8174   -1.4382   -1.5902 C.ar      1 <0>        -0.1314
      4 C4         -0.1523   -1.4277   -2.5863 C.ar      1 <0>        -0.0515
      5 C5          0.1927   -1.5421   -3.9288 C.ar      1 <0>        -0.0461
      6 C6          1.5399   -1.6705   -4.2768 C.ar      1 <0>        -0.0856
      7 C7          2.4934   -1.6796   -3.2929 C.ar      1 <0>        -0.1564
      8 C8          2.1497   -1.5614   -1.9337 C.ar      1 <0>         0.1904
      9 N1          3.2123   -1.5762   -1.0591 N.am      1 <0>        -0.6462
     10 C9          3.3388   -1.6446    0.2393 C.2       1 <0>         0.4966
     11 O1          4.4536   -1.8518    0.6698 O.2       1 <0>        -0.5280
     12 C10         2.2486   -1.4928    1.2436 C.3       1 <0>         0.0468
     13 O2          1.0338   -2.0287    0.7710 O.3       1 <0>        -0.3473
     14 C11        -0.8515   -1.5283   -4.9732 C.2       1 <0>         0.0973
     15 C12        -2.1886   -1.8012   -4.7810 C.2       1 <0>        -0.1772
     16 C13        -2.8268   -1.6798   -6.0146 C.2       1 <0>        -0.1057
     17 C14        -1.8673   -1.3335   -6.9454 C.2       1 <0>         0.0545
     18 N2         -0.6581   -1.2372   -6.2942 N.pl3     1 <0>        -0.4155
     19 C15         0.6218   -0.8855   -6.9142 C.3       1 <0>         0.0556
     20 C16        -2.0917   -1.1081   -8.3416 C.1       1 <0>         0.2768
     21 N3         -2.2698   -0.9292   -9.4492 N.1       1 <0>        -0.4041
     22 C17        -1.1175   -1.7806   -0.1543 C.2       1 <0>        -0.1049
     23 C18        -1.4143   -3.1087    0.0877 C.2       1 <0>        -0.1362
     24 C19        -2.7122   -3.4989    0.1093 C.2       1 <0>        -0.1689
     25 S1         -3.5645   -1.9649   -0.2190 S.3       1 <0>         0.0535
     26 C20        -2.1335   -0.9065   -0.3573 C.2       1 <0>        -0.1749
     27 H1          1.3729    0.5185    0.2326 H         1 <0>         0.0648
     28 H2         -0.2171    0.7484   -0.5339 H         1 <0>         0.0803
     29 H3         -0.1146    0.2958    1.1845 H         1 <0>         0.0802
     30 H4         -1.1924   -1.3287   -2.3128 H         1 <0>         0.1445
     31 H5          1.8275   -1.7623   -5.3138 H         1 <0>         0.1353
     32 H6          3.5332   -1.7798   -3.5671 H         1 <0>         0.1336
     33 H7          4.0678   -1.5238   -1.5132 H         1 <0>         0.4009
     34 H8          2.5337   -2.0098    2.1599 H         1 <0>         0.1438
     35 H9          2.1099   -0.4339    1.4616 H         1 <0>         0.0986
     36 H10        -2.6575   -2.0620   -3.8437 H         1 <0>         0.1515
     37 H11        -3.8789   -1.8295   -6.2071 H         1 <0>         0.1544
     38 H12         1.1651   -1.7959   -7.1675 H         1 <0>         0.0856
     39 H13         0.4400   -0.3069   -7.8199 H         1 <0>         0.0883
     40 H14         1.2126   -0.2921   -6.2164 H         1 <0>         0.0977
     41 H15        -0.6238   -3.8249    0.2566 H         1 <0>         0.1392
     42 H16        -3.1239   -4.4826    0.2804 H         1 <0>         0.1876
     43 H17        -2.0888    0.1547   -0.5529 H         1 <0>         0.1896
@<TRIPOS>BOND
     1    1    2 1
     2    1   27 1
     3    1   28 1
     4    1   29 1
     5    2   13 1
     6    2    3 1
     7    2   22 1
     8    3    8 ar
     9    3    4 ar
    10    4    5 ar
    11    4   30 1
    12    5    6 ar
    13    5   14 1
    14    6    7 ar
    15    6   31 1
    16    7    8 ar
    17    7   32 1
    18    8    9 1
    19    9   10 am
    20    9   33 1
    21   10   11 2
    22   10   12 1
    23   12   13 1
    24   12   34 1
    25   12   35 1
    26   14   18 1
    27   14   15 2
    28   15   16 1
    29   15   36 1
    30   16   17 2
    31   16   37 1
    32   17   18 1
    33   17   20 1
    34   18   19 1
    35   19   38 1
    36   19   39 1
    37   19   40 1
    38   20   21 3
    39   22   26 2
    40   22   23 1
    41   23   24 2
    42   23   41 1
    43   24   25 1
    44   24   42 1
    45   25   26 1
    46   26   43 1
@<TRIPOS>MOLECULE
CHEMBL216273
   58    59     0     0     0
SMALL
USER_CHARGES

@<TRIPOS>ATOM
      1 C1          0.5328   -0.3124    1.3330 C.3       1 <0>        -0.1454
      2 C2          0.1421   -1.7887    1.2389 C.3       1 <0>        -0.1325
      3 H1          0.6037   -2.2356    0.3583 H         1 <0>         0.0963
      4 C3         -1.3827   -1.9148    1.1436 C.3       1 <0>         0.0630
      5 N1         -1.9897   -1.4528    2.3981 N.3       1 <0>        -0.5291
      6 C4         -1.6290   -2.3228    3.5246 C.3       1 <0>         0.0484
      7 C5         -0.1209   -2.2243    3.7815 C.3       1 <0>        -0.1286
      8 H2          0.1713   -2.9523    4.5383 H         1 <0>         0.0939
      9 C6          0.6022   -2.5192    2.4830 C.2       1 <0>         0.3671
     10 O1          1.5136   -3.3103    2.4409 O.2       1 <0>        -0.4547
     11 C7          0.2300   -0.8140    4.2597 C.3       1 <0>        -0.1471
     12 C8         -3.4484   -1.3391    2.2667 C.3       1 <0>         0.0235
     13 C9         -3.9821   -0.3728    3.3261 C.3       1 <0>         0.1054
     14 C10        -5.4925   -0.2051    3.1487 C.3       1 <0>        -0.1573
     15 C11        -6.0453    0.6651    4.2792 C.3       1 <0>        -0.0108
     16 C12        -7.4988    0.2768    4.5576 C.3       1 <0>        -0.1376
     17 C13        -5.2094    0.4514    5.5427 C.3       1 <0>        -0.1602
     18 C14        -5.9815    2.1152    3.8739 C.ar      1 <0>        -0.0516
     19 C15        -5.6175    2.4575    2.5857 C.ar      1 <0>        -0.1562
     20 C16        -5.5592    3.7894    2.2130 C.ar      1 <0>         0.0731
     21 C17        -5.8652    4.7805    3.1305 C.ar      1 <0>        -0.1261
     22 C18        -6.2294    4.4411    4.4189 C.ar      1 <0>        -0.1733
     23 C19        -6.2938    3.1065    4.7922 C.ar      1 <0>         0.1188
     24 O2         -6.6575    2.7709    6.0583 O.3       1 <0>        -0.3019
     25 C20        -6.9653    3.8437    6.9508 C.3       1 <0>         0.0213
     26 F1         -5.2031    4.1227    0.9531 F         1 <0>        -0.1400
     27 C21        -3.2962    0.9857    3.1690 C.3       1 <0>         0.4705
     28 F2         -3.5536    1.4931    1.8909 F         1 <0>        -0.1749
     29 F3         -3.7917    1.8723    4.1312 F         1 <0>        -0.1574
     30 F4         -1.9162    0.8341    3.3414 F         1 <0>        -0.1523
     31 O3         -3.7106   -0.8959    4.6279 O.3       1 <0>        -0.5200
     32 H3          1.5285   -0.2272    1.7683 H         1 <0>         0.0547
     33 H4          0.5333    0.1276    0.3358 H         1 <0>         0.0627
     34 H5         -0.1850    0.2140    1.9621 H         1 <0>         0.0910
     35 H6         -1.7470   -1.3046    0.3171 H         1 <0>         0.0895
     36 H7         -1.6513   -2.9572    0.9721 H         1 <0>         0.0417
     37 H8         -2.1711   -2.0068    4.4160 H         1 <0>         0.1165
     38 H9         -1.8907   -3.3537    3.2861 H         1 <0>         0.0356
     39 H10        -0.2613   -0.6209    5.2133 H         1 <0>         0.0658
     40 H11         1.3097   -0.7306    4.3838 H         1 <0>         0.0487
     41 H12        -0.1083   -0.0857    3.5226 H         1 <0>         0.0933
     42 H13        -3.6955   -0.9627    1.2741 H         1 <0>         0.0973
     43 H14        -3.9033   -2.3197    2.4071 H         1 <0>         0.0659
     44 H15        -5.6949    0.2727    2.1901 H         1 <0>         0.0942
     45 H16        -5.9723   -1.1835    3.1754 H         1 <0>         0.0954
     46 H17        -7.5361   -0.7457    4.9334 H         1 <0>         0.0593
     47 H18        -7.9193    0.9531    5.3018 H         1 <0>         0.0690
     48 H19        -8.0764    0.3465    3.6358 H         1 <0>         0.0524
     49 H20        -4.2007    0.8311    5.3795 H         1 <0>         0.0979
     50 H21        -5.6677    0.9839    6.3760 H         1 <0>         0.0570
     51 H22        -5.1640   -0.6131    5.7726 H         1 <0>         0.0609
     52 H23        -5.3779    1.6856    1.8694 H         1 <0>         0.1580
     53 H24        -5.8187    5.8192    2.8386 H         1 <0>         0.1352
     54 H25        -6.4677    5.2143    5.1344 H         1 <0>         0.1361
     55 H26        -7.7980    4.4219    6.5504 H         1 <0>         0.0546
     56 H27        -7.2394    3.4386    7.9249 H         1 <0>         0.1006
     57 H28        -6.0932    4.4887    7.0579 H         1 <0>         0.0555
     58 H29        -4.1153   -1.7575    4.7979 H         1 <0>         0.3872
@<TRIPOS>BOND
     1    1    2 1
     2    1   32 1
     3    1   33 1
     4    1   34 1
     5    2    3 1
     6    2    9 1
     7    2    4 1
     8    4    5 1
     9    4   35 1
    10    4   36 1
    11    5    6 1
    12    5   12 1
    13    6    7 1
    14    6   37 1
    15    6   38 1
    16    7    8 1
    17    7    9 1
    18    7   11 1
    19    9   10 2
    20   11   39 1
    21   11   40 1
    22   11   41 1
    23   12   13 1
    24   12   42 1
    25   12   43 1
    26   13   14 1
    27   13   27 1
    28   13   31 1
    29   14   15 1
    30   14   44 1
    31   14   45 1
    32   15   16 1
    33   15   17 1
    34   15   18 1
    35   16   46 1
    36   16   47 1
    37   16   48 1
    38   17   49 1
    39   17   50 1
    40   17   51 1
    41   18   23 ar
    42   18   19 ar
    43   19   20 ar
    44   19   52 1
    45   20   21 ar
    46   20   26 1
    47   21   22 ar
    48   21   53 1
    49   22   23 ar
    50   22   54 1
    51   23   24 1
    52   24   25 1
    53   25   55 1
    54   25   56 1
    55   25   57 1
    56   27   28 1
    57   27   29 1
    58   27   30 1
    59   31   58 1
@<TRIPOS>MOLECULE
CHEMBL216273__1
   59    60     0     0     0
SMALL
USER_CHARGES

@<TRIPOS>ATOM
      1 C1         -1.1199    6.9976    1.7108 C.3       1 <0>        -0.1613
      2 C2         -2.5319    6.6722    2.2020 C.3       1 <0>        -0.1592
      3 H1         -3.0562    7.5947    2.4515 H         1 <0>         0.1462
      4 C3         -2.4542    5.7705    3.4393 C.3       1 <0>        -0.0012
      5 N1         -1.8711    4.4764    3.0659 N.4       1 <0>        -0.4015
      6 C4         -2.7785    3.7520    2.1681 C.3       1 <0>        -0.0342
      7 C5         -2.8810    4.4989    0.8334 C.3       1 <0>        -0.1526
      8 H2         -3.6307    4.0222    0.2019 H         1 <0>         0.1451
      9 C6         -3.2904    5.9295    1.1215 C.2       1 <0>         0.3493
     10 O1         -4.1894    6.4583    0.5127 O.2       1 <0>        -0.3953
     11 C7         -1.5242    4.4818    0.1266 C.3       1 <0>        -0.1663
     12 C8         -1.6443    3.6771    4.2773 C.3       1 <0>        -0.0394
     13 C9         -0.7873    2.4579    3.9309 C.3       1 <0>         0.0396
     14 C10        -0.3518    1.7578    5.2197 C.3       1 <0>        -0.1289
     15 C11         0.6434    0.6451    4.8844 C.3       1 <0>         0.0018
     16 C12         2.0304    1.0274    5.4050 C.3       1 <0>        -0.1922
     17 C13         0.1922   -0.6589    5.5453 C.3       1 <0>        -0.1432
     18 C14         0.7020    0.4570    3.3903 C.ar      1 <0>        -0.1668
     19 C15        -0.4574    0.2175    2.6779 C.ar      1 <0>        -0.0477
     20 C16        -0.4041    0.0451    1.3054 C.ar      1 <0>         0.0306
     21 C17         0.8110    0.1119    0.6446 C.ar      1 <0>        -0.0893
     22 C18         1.9716    0.3512    1.3544 C.ar      1 <0>        -0.2070
     23 C19         1.9189    0.5298    2.7291 C.ar      1 <0>         0.1535
     24 O2          3.0596    0.7709    3.4281 O.3       1 <0>        -0.2746
     25 C20         4.2769    0.8327    2.6821 C.3       1 <0>        -0.0103
     26 F1         -1.5385   -0.1890    0.6100 F         1 <0>        -0.1432
     27 C21         0.4501    2.9090    3.1523 C.3       1 <0>         0.4301
     28 F2          0.5705    4.3004    3.2333 F         1 <0>        -0.1856
     29 F3          1.5896    2.3097    3.6998 F         1 <0>        -0.0983
     30 F4          0.3218    2.5292    1.8120 F         1 <0>        -0.1518
     31 O3         -1.5494    1.5518    3.1307 O.3       1 <0>        -0.4601
     32 H3         -1.1305    7.1167    0.6274 H         1 <0>         0.0867
     33 H4         -0.7781    7.9228    2.1747 H         1 <0>         0.0956
     34 H5         -0.4452    6.1851    1.9805 H         1 <0>         0.0543
     35 H6         -1.8301    6.2454    4.1962 H         1 <0>         0.1447
     36 H7         -3.4562    5.6157    3.8395 H         1 <0>         0.1404
     37 H8         -2.3919    2.7479    1.9937 H         1 <0>         0.1673
     38 H9         -3.7660    3.6868    2.6248 H         1 <0>         0.1380
     39 H10        -1.2662    3.4568   -0.1397 H         1 <0>         0.0930
     40 H11        -1.5773    5.0895   -0.7767 H         1 <0>         0.0903
     41 H12        -0.7624    4.8868    0.7928 H         1 <0>         0.0543
     42 H13        -1.1288    4.2839    5.0218 H         1 <0>         0.1537
     43 H14        -2.6021    3.3458    4.6787 H         1 <0>         0.1599
     44 H15         0.1218    2.4808    5.8838 H         1 <0>         0.1000
     45 H16        -1.2241    1.3286    5.7127 H         1 <0>         0.1074
     46 H17         2.1081    0.7633    6.4597 H         1 <0>         0.0537
     47 H18         2.7916    0.4907    4.8389 H         1 <0>         0.1334
     48 H19         2.1795    2.1008    5.2874 H         1 <0>         0.0752
     49 H20        -0.7550   -0.9779    5.1104 H         1 <0>         0.0585
     50 H21         0.9454   -1.4294    5.3805 H         1 <0>         0.0662
     51 H22         0.0647   -0.4985    6.6159 H         1 <0>         0.0631
     52 H23        -1.4057    0.1644    3.1921 H         1 <0>         0.1974
     53 H24         0.8513   -0.0235   -0.4261 H         1 <0>         0.1329
     54 H25         2.9192    0.4028    0.8388 H         1 <0>         0.1359
     55 H26         4.4401   -0.1177    2.1738 H         1 <0>         0.0598
     56 H27         4.2107    1.6325    1.9445 H         1 <0>         0.0550
     57 H28         5.1082    1.0303    3.3588 H         1 <0>         0.1028
     58 H29        -2.4195    1.3408    3.4960 H         1 <0>         0.3774
     59 H30        -0.9899    4.6291    2.5987 H         1 <0>         0.4167
@<TRIPOS>BOND
     1    1    2 1
     2    1   32 1
     3    1   33 1
     4    1   34 1
     5    2    3 1
     6    2    9 1
     7    2    4 1
     8    4    5 1
     9    4   35 1
    10    4   36 1
    11    5    6 1
    12    5   12 1
    13    5   59 1
    14    6    7 1
    15    6   37 1
    16    6   38 1
    17    7    8 1
    18    7    9 1
    19    7   11 1
    20    9   10 2
    21   11   39 1
    22   11   40 1
    23   11   41 1
    24   12   13 1
    25   12   42 1
    26   12   43 1
    27   13   14 1
    28   13   27 1
    29   13   31 1
    30   14   15 1
    31   14   44 1
    32   14   45 1
    33   15   16 1
    34   15   17 1
    35   15   18 1
    36   16   46 1
    37   16   47 1
    38   16   48 1
    39   17   49 1
    40   17   50 1
    41   17   51 1
    42   18   23 ar
    43   18   19 ar
    44   19   20 ar
    45   19   52 1
    46   20   21 ar
    47   20   26 1
    48   21   22 ar
    49   21   53 1
    50   22   23 ar
    51   22   54 1
    52   23   24 1
    53   24   25 1
    54   25   55 1
    55   25   56 1
    56   25   57 1
    57   27   28 1
    58   27   29 1
    59   27   30 1
    60   31   58 1
@<TRIPOS>MOLECULE
CHEMBL216273__2
   58    59     0     0     0
SMALL
USER_CHARGES

@<TRIPOS>ATOM
      1 C1         -6.0097   -1.2716   -1.7948 C.3       1 <0>        -0.1419
      2 C2         -5.2763   -0.0951   -2.4420 C.3       1 <0>        -0.1336
      3 H1         -4.6036   -0.4627   -3.2169 H         1 <0>         0.0985
      4 C3         -4.4740    0.6625   -1.3778 C.3       1 <0>         0.0629
      5 N1         -5.3982    1.2857   -0.4222 N.3       1 <0>        -0.5333
      6 C4         -6.2151    2.3253   -1.0609 C.3       1 <0>         0.0551
      7 C5         -7.1355    1.6805   -2.1036 C.3       1 <0>        -0.1337
      8 H2         -7.6599    2.4566   -2.6611 H         1 <0>         0.0987
      9 C6         -6.2811    0.8613   -3.0495 C.2       1 <0>         0.3672
     10 O1         -6.3961    0.9678   -4.2469 O.2       1 <0>        -0.4502
     11 C7         -8.1497    0.7723   -1.4054 C.3       1 <0>        -0.1474
     12 C8         -4.6735    1.8238    0.7368 C.3       1 <0>         0.0261
     13 C9         -5.4989    1.5969    2.0048 C.3       1 <0>         0.1110
     14 C10        -5.8571    0.1140    2.1216 C.3       1 <0>        -0.1455
     15 C11        -6.7512   -0.0999    3.3447 C.3       1 <0>        -0.0184
     16 C12        -7.6788    1.1048    3.5152 C.3       1 <0>        -0.1631
     17 C13        -7.5890   -1.3651    3.1489 C.3       1 <0>        -0.1343
     18 C14        -5.8929   -0.2510    4.5741 C.ar      1 <0>        -0.0613
     19 C15        -4.6005   -0.7264    4.4606 C.ar      1 <0>        -0.1345
     20 C16        -3.8116   -0.8649    5.5897 C.ar      1 <0>         0.0690
     21 C17        -4.3165   -0.5277    6.8343 C.ar      1 <0>        -0.1240
     22 C18        -5.6082   -0.0523    6.9506 C.ar      1 <0>        -0.1777
     23 C19        -6.3979    0.0924    5.8193 C.ar      1 <0>         0.1269
     24 O2         -7.6674    0.5656    5.9316 O.3       1 <0>        -0.2929
     25 C20        -8.1215    0.8994    7.2448 C.3       1 <0>         0.0147
     26 F1         -2.5481   -1.3298    5.4774 F         1 <0>        -0.1410
     27 C21        -4.6833    2.0224    3.2273 C.3       1 <0>         0.4598
     28 F2         -4.2730    3.3512    3.0747 F         1 <0>        -0.1803
     29 F3         -5.4717    1.9069    4.3772 F         1 <0>        -0.1494
     30 F4         -3.5592    1.1982    3.3478 F         1 <0>        -0.1716
     31 O3         -6.6973    2.3725    1.9382 O.3       1 <0>        -0.5326
     32 H3         -6.8067   -1.6111   -2.4563 H         1 <0>         0.0561
     33 H4         -5.3076   -2.0875   -1.6234 H         1 <0>         0.0652
     34 H5         -6.4373   -0.9544   -0.8437 H         1 <0>         0.0845
     35 H6         -3.8210   -0.0333   -0.8510 H         1 <0>         0.0929
     36 H7         -3.8719    1.4342   -1.8574 H         1 <0>         0.0451
     37 H8         -6.8182    2.8290   -0.3055 H         1 <0>         0.0975
     38 H9         -5.5640    3.0502   -1.5494 H         1 <0>         0.0462
     39 H10        -8.8307    1.3793   -0.8088 H         1 <0>         0.0666
     40 H11        -8.7170    0.2186   -2.1535 H         1 <0>         0.0573
     41 H12        -7.6238    0.0720   -0.7564 H         1 <0>         0.0842
     42 H13        -3.7135    1.3164    0.8325 H         1 <0>         0.0921
     43 H14        -4.5075    2.8921    0.5976 H         1 <0>         0.0724
     44 H15        -6.3875   -0.2035    1.2239 H         1 <0>         0.1114
     45 H16        -4.9449   -0.4726    2.2314 H         1 <0>         0.0890
     46 H17        -8.1838    1.3110    2.5715 H         1 <0>         0.0521
     47 H18        -8.4202    0.8865    4.2839 H         1 <0>         0.0706
     48 H19        -7.0934    1.9750    3.8118 H         1 <0>         0.0979
     49 H20        -6.9320   -2.2342    3.1143 H         1 <0>         0.0545
     50 H21        -8.2874   -1.4705    3.9791 H         1 <0>         0.0614
     51 H22        -8.1444   -1.2920    2.2139 H         1 <0>         0.0614
     52 H23        -4.2057   -0.9904    3.4907 H         1 <0>         0.1441
     53 H24        -3.7002   -0.6369    7.7145 H         1 <0>         0.1349
     54 H25        -6.0018    0.2103    7.9214 H         1 <0>         0.1359
     55 H26        -7.4814    1.6756    7.6642 H         1 <0>         0.0549
     56 H27        -9.1476    1.2634    7.1929 H         1 <0>         0.1001
     57 H28        -8.0817    0.0138    7.8790 H         1 <0>         0.0539
     58 H29        -7.3700    2.0072    1.3474 H         1 <0>         0.3945
@<TRIPOS>BOND
     1    1    2 1
     2    1   32 1
     3    1   33 1
     4    1   34 1
     5    2    3 1
     6    2    9 1
     7    2    4 1
     8    4    5 1
     9    4   35 1
    10    4   36 1
    11    5    6 1
    12    5   12 1
    13    6    7 1
    14    6   37 1
    15    6   38 1
    16    7    8 1
    17    7    9 1
    18    7   11 1
    19    9   10 2
    20   11   39 1
    21   11   40 1
    22   11   41 1
    23   12   13 1
    24   12   42 1
    25   12   43 1
    26   13   14 1
    27   13   27 1
    28   13   31 1
    29   14   15 1
    30   14   44 1
    31   14   45 1
    32   15   16 1
    33   15   17 1
    34   15   18 1
    35   16   46 1
    36   16   47 1
    37   16   48 1
    38   17   49 1
    39   17   50 1
    40   17   51 1
    41   18   23 ar
    42   18   19 ar
    43   19   20 ar
    44   19   52 1
    45   20   21 ar
    46   20   26 1
    47   21   22 ar
    48   21   53 1
    49   22   23 ar
    50   22   54 1
    51   23   24 1
    52   24   25 1
    53   25   55 1
    54   25   56 1
    55   25   57 1
    56   27   28 1
    57   27   29 1
    58   27   30 1
    59   31   58 1
@<TRIPOS>MOLECULE
CHEMBL216273__3
   59    60     0     0     0
SMALL
USER_CHARGES

@<TRIPOS>ATOM
      1 C1         -5.2099    0.8796   -2.5945 C.3       1 <0>        -0.1637
      2 C2         -4.4871    2.2054   -2.3477 C.3       1 <0>        -0.1589
      3 H1         -3.6453    2.2985   -3.0337 H         1 <0>         0.1482
      4 C3         -3.9836    2.2584   -0.9008 C.3       1 <0>        -0.0038
      5 N1         -5.1297    2.2707    0.0161 N.4       1 <0>        -0.3882
      6 C4         -5.8838    3.5210   -0.1323 C.3       1 <0>        -0.0153
      7 C5         -6.5329    3.5648   -1.5203 C.3       1 <0>        -0.1583
      8 H2         -7.0079    4.5338   -1.6738 H         1 <0>         0.1483
      9 C6         -5.4475    3.3578   -2.5576 C.2       1 <0>         0.3489
     10 O1         -5.3505    4.0856   -3.5164 O.2       1 <0>        -0.3917
     11 C7         -7.5780    2.4534   -1.6367 C.3       1 <0>        -0.1735
     12 C8         -4.6479    2.1540    1.3990 C.3       1 <0>        -0.0433
     13 C9         -5.6918    1.4192    2.2424 C.3       1 <0>         0.0726
     14 C10        -5.8717   -0.0025    1.7063 C.3       1 <0>        -0.1738
     15 C11        -6.9595   -0.7170    2.5107 C.3       1 <0>        -0.0073
     16 C12        -8.0679    0.2766    2.8644 C.3       1 <0>        -0.1804
     17 C13        -7.5446   -1.8579    1.6760 C.3       1 <0>        -0.1410
     18 C14        -6.3628   -1.2756    3.7768 C.ar      1 <0>        -0.0893
     19 C15        -5.0150   -1.5745    3.8324 C.ar      1 <0>        -0.1340
     20 C16        -4.4665   -2.0872    4.9955 C.ar      1 <0>         0.0705
     21 C17        -5.2676   -2.3017    6.1044 C.ar      1 <0>        -0.1109
     22 C18        -6.6154   -2.0038    6.0515 C.ar      1 <0>        -0.1729
     23 C19        -7.1653   -1.4846    4.8885 C.ar      1 <0>         0.1354
     24 O2         -8.4904   -1.1857    4.8369 O.3       1 <0>        -0.2977
     25 C20        -9.2563   -1.4265    6.0191 C.3       1 <0>         0.0129
     26 F1         -3.1484   -2.3790    5.0485 F         1 <0>        -0.1364
     27 C21        -5.2221    1.3601    3.6973 C.3       1 <0>         0.4750
     28 F2         -4.9049    2.6495    4.1377 F         1 <0>        -0.1686
     29 F3         -6.2427    0.8325    4.4957 F         1 <0>        -0.1320
     30 F4         -4.0895    0.5441    3.7889 F         1 <0>        -0.1577
     31 O3         -6.9374    2.1160    2.1719 O.3       1 <0>        -0.5136
     32 H3         -5.8165    0.9590   -3.4966 H         1 <0>         0.0912
     33 H4         -4.4759    0.0834   -2.7192 H         1 <0>         0.0951
     34 H5         -5.8520    0.6519   -1.7437 H         1 <0>         0.0549
     35 H6         -3.3661    1.3832   -0.6987 H         1 <0>         0.1489
     36 H7         -3.3919    3.1621   -0.7549 H         1 <0>         0.1450
     37 H8         -6.6585    3.5710    0.6328 H         1 <0>         0.1549
     38 H9         -5.2076    4.3686   -0.0206 H         1 <0>         0.1456
     39 H10        -8.4024    2.6568   -0.9533 H         1 <0>         0.0937
     40 H11        -7.9546    2.4144   -2.6588 H         1 <0>         0.0949
     41 H12        -7.1216    1.4972   -1.3810 H         1 <0>         0.0588
     42 H13        -3.7120    1.5955    1.4117 H         1 <0>         0.1586
     43 H14        -4.4828    3.1493    1.8114 H         1 <0>         0.1608
     44 H15        -6.1639    0.0391    0.6570 H         1 <0>         0.0868
     45 H16        -4.9327   -0.5479    1.8006 H         1 <0>         0.1182
     46 H17        -8.4221    0.7643    1.9562 H         1 <0>         0.0456
     47 H18        -8.8940   -0.2540    3.3378 H         1 <0>         0.0925
     48 H19        -7.6772    1.0274    3.5513 H         1 <0>         0.1045
     49 H20        -6.7753   -2.6092    1.4976 H         1 <0>         0.0618
     50 H21        -8.3774   -2.3113    2.2136 H         1 <0>         0.0745
     51 H22        -7.8981   -1.4661    0.7222 H         1 <0>         0.0600
     52 H23        -4.3892   -1.4083    2.9681 H         1 <0>         0.1409
     53 H24        -4.8386   -2.7024    7.0109 H         1 <0>         0.1414
     54 H25        -7.2401   -2.1716    6.9164 H         1 <0>         0.1419
     55 H26        -9.2045   -2.4844    6.2764 H         1 <0>         0.0589
     56 H27        -8.8539   -0.8328    6.8399 H         1 <0>         0.0590
     57 H28       -10.2947   -1.1459    5.8427 H         1 <0>         0.1047
     58 H29        -7.4403    1.9420    1.3645 H         1 <0>         0.3939
     59 H30        -5.7332    1.4895   -0.1926 H         1 <0>         0.4133
@<TRIPOS>BOND
     1    1    2 1
     2    1   32 1
     3    1   33 1
     4    1   34 1
     5    2    3 1
     6    2    9 1
     7    2    4 1
     8    4    5 1
     9    4   35 1
    10    4   36 1
    11    5    6 1
    12    5   12 1
    13    5   59 1
    14    6    7 1
    15    6   37 1
    16    6   38 1
    17    7    8 1
    18    7    9 1
    19    7   11 1
    20    9   10 2
    21   11   39 1
    22   11   40 1
    23   11   41 1
    24   12   13 1
    25   12   42 1
    26   12   43 1
    27   13   14 1
    28   13   27 1
    29   13   31 1
    30   14   15 1
    31   14   44 1
    32   14   45 1
    33   15   16 1
    34   15   17 1
    35   15   18 1
    36   16   46 1
    37   16   47 1
    38   16   48 1
    39   17   49 1
    40   17   50 1
    41   17   51 1
    42   18   23 ar
    43   18   19 ar
    44   19   20 ar
    45   19   52 1
    46   20   21 ar
    47   20   26 1
    48   21   22 ar
    49   21   53 1
    50   22   23 ar
    51   22   54 1
    52   23   24 1
    53   24   25 1
    54   25   55 1
    55   25   56 1
    56   25   57 1
    57   27   28 1
    58   27   29 1
    59   27   30 1
    60   31   58 1
@<TRIPOS>MOLECULE
CHEMBL503041
   85    91     0     0     0
SMALL
USER_CHARGES

@<TRIPOS>ATOM
      1 C1         -0.5387    1.4285    0.8773 C.3       1 <0>        -0.1588
      2 C2         -0.5446   -0.0832    0.6416 C.3       1 <0>        -0.0881
      3 H1         -1.5689   -0.4558    0.6304 H         1 <0>         0.0929
      4 C3          0.1585   -0.4159   -0.7027 C.3       1 <0>        -0.1125
      5 C4          0.8949   -1.7232   -0.3902 C.3       1 <0>        -0.0829
      6 H2          0.1931   -2.5568   -0.3634 H         1 <0>         0.0872
      7 C5          2.0693   -2.0519   -1.2938 C.3       1 <0>        -0.0993
      8 H3          2.7970   -1.2410   -1.2610 H         1 <0>         0.1152
      9 C6          1.5802   -2.2489   -2.7301 C.3       1 <0>        -0.1154
     10 C7          2.7731   -2.5413   -3.6458 C.3       1 <0>        -0.0950
     11 C8          3.5213   -3.7337   -3.0799 C.2       1 <0>        -0.0292
     12 C9          3.7943   -4.7579   -3.8763 C.2       1 <0>        -0.2208
     13 C10         4.5003   -5.9402   -3.3586 C.2       1 <0>         0.4076
     14 O1          4.7865   -6.8658   -4.0949 O.2       1 <0>        -0.4564
     15 C11         4.8523   -5.9784   -1.9291 C.2       1 <0>        -0.2091
     16 C12         4.5757   -4.9415   -1.1541 C.2       1 <0>        -0.0689
     17 C13         3.9209   -3.6922   -1.6346 C.3       1 <0>        -0.0314
     18 C14         2.7097   -3.3453   -0.7650 C.3       1 <0>         0.1612
     19 C15         3.1341   -3.2089    0.6940 C.3       1 <0>         0.0906
     20 H4          3.4942   -4.1737    1.0512 H         1 <0>         0.0733
     21 C16         1.9687   -2.7481    1.5837 C.3       1 <0>        -0.1324
     22 C17         1.4526   -1.4383    1.0302 C.3       1 <0>        -0.0406
     23 C18         0.2687   -0.7973    1.7499 C.3       1 <0>         0.1209
     24 C19         0.7547    0.2026    2.7673 C.2       1 <0>         0.3535
     25 O2          1.4072    1.1553    2.4137 O.2       1 <0>        -0.3998
     26 C20         0.4263    0.0137    4.2259 C.3       1 <0>         0.0207
     27 O3          0.9456    1.1127    4.9773 O.3       1 <0>        -0.5499
     28 O4         -0.5297   -1.7999    2.3818 O.3       1 <0>        -0.3479
     29 C21        -1.7228   -1.4127    2.8710 C.2       1 <0>         0.6422
     30 O5         -2.0851   -0.2596    2.7467 O.2       1 <0>        -0.5519
     31 N1         -2.5152   -2.3042    3.4985 N.am      1 <0>        -0.7023
     32 C22        -3.8135   -1.8829    4.0307 C.3       1 <0>         0.2009
     33 C23        -3.6050   -0.7786    5.0690 C.3       1 <0>        -0.1250
     34 C24        -4.9609   -0.3386    5.6248 C.3       1 <0>        -0.0814
     35 C25        -5.6541   -1.5331    6.2830 C.3       1 <0>        -0.1125
     36 C26        -5.8626   -2.6374    5.2448 C.3       1 <0>        -0.0796
     37 C27        -4.5068   -3.0774    4.6890 C.3       1 <0>        -0.1149
     38 C28        -6.7337   -2.1072    4.1042 C.3       1 <0>        -0.1127
     39 C29        -6.0404   -0.9127    3.4460 C.3       1 <0>        -0.0816
     40 C30        -5.8319    0.1917    4.4842 C.3       1 <0>        -0.1100
     41 C31        -4.6846   -1.3526    2.8901 C.3       1 <0>        -0.1247
     42 C32         2.6122   -0.4440    0.9425 C.3       1 <0>        -0.1674
     43 O6          4.1933   -2.2539    0.7840 O.3       1 <0>        -0.5397
     44 F1          1.7840   -4.3899   -0.8607 F         1 <0>        -0.1924
     45 C33         4.9164   -2.5438   -1.4576 C.3       1 <0>        -0.1364
     46 H5          0.4886    1.7927    0.8744 H         1 <0>         0.0805
     47 H6         -1.1014    1.9220    0.0849 H         1 <0>         0.0567
     48 H7         -0.9992    1.6478    1.8406 H         1 <0>         0.0649
     49 H8         -0.5751   -0.5663   -1.4947 H         1 <0>         0.0756
     50 H9          0.8644    0.3692   -0.9734 H         1 <0>         0.0798
     51 H10         0.8830   -3.0860   -2.7642 H         1 <0>         0.0741
     52 H11         1.0762   -1.3438   -3.0689 H         1 <0>         0.0823
     53 H12         2.4180   -2.7724   -4.6501 H         1 <0>         0.0847
     54 H13         3.4331   -1.6744   -3.6786 H         1 <0>         0.0887
     55 H14         3.4957   -4.7241   -4.9136 H         1 <0>         0.1389
     56 H15         5.3349   -6.8508   -1.5139 H         1 <0>         0.1406
     57 H16         4.8407   -5.0051   -0.1090 H         1 <0>         0.1272
     58 H17         1.1687   -3.4881    1.5606 H         1 <0>         0.0882
     59 H18         2.3161   -2.6074    2.6073 H         1 <0>         0.0763
     60 H19        -0.6553   -0.0337    4.3517 H         1 <0>         0.0857
     61 H20         0.8745   -0.9139    4.5820 H         1 <0>         0.0741
     62 H21         0.7709    1.0575    5.9268 H         1 <0>         0.3842
     63 H22        -2.2260   -3.2247    3.5977 H         1 <0>         0.4057
     64 H23        -2.9844   -1.1563    5.8815 H         1 <0>         0.0601
     65 H24        -3.1111    0.0725    4.6000 H         1 <0>         0.0871
     66 H25        -4.8123    0.4482    6.3645 H         1 <0>         0.0737
     67 H26        -5.0336   -1.9109    7.0956 H         1 <0>         0.0631
     68 H27        -6.6201   -1.2197    6.6790 H         1 <0>         0.0666
     69 H28        -6.3566   -3.4885    5.7138 H         1 <0>         0.0775
     70 H29        -4.6553   -3.8642    3.9493 H         1 <0>         0.0715
     71 H30        -3.8862   -3.4552    5.5016 H         1 <0>         0.0709
     72 H31        -6.8822   -2.8939    3.3645 H         1 <0>         0.0634
     73 H32        -7.6996   -1.7938    4.5002 H         1 <0>         0.0664
     74 H33        -6.6610   -0.5349    2.6334 H         1 <0>         0.0737
     75 H34        -6.7978    0.5051    4.8802 H         1 <0>         0.0640
     76 H35        -5.3380    1.0427    4.0152 H         1 <0>         0.0656
     77 H36        -4.1906   -0.5016    2.4212 H         1 <0>         0.0883
     78 H37        -4.8331   -2.1394    2.1504 H         1 <0>         0.0613
     79 H38         2.2268    0.5416    0.6815 H         1 <0>         0.0727
     80 H39         3.1201   -0.3923    1.9055 H         1 <0>         0.0531
     81 H40         3.3159   -0.7731    0.1779 H         1 <0>         0.1089
     82 H41         4.5188   -2.1112    1.6834 H         1 <0>         0.3783
     83 H42         4.3766   -1.5977   -1.4193 H         1 <0>         0.0782
     84 H43         5.4710   -2.6835   -0.5297 H         1 <0>         0.0976
     85 H44         5.6108   -2.5322   -2.2977 H         1 <0>         0.0543
@<TRIPOS>BOND
     1    1    2 1
     2    1   46 1
     3    1   47 1
     4    1   48 1
     5    2    3 1
     6    2   23 1
     7    2    4 1
     8    4    5 1
     9    4   49 1
    10    4   50 1
    11    5    6 1
    12    5   22 1
    13    5    7 1
    14    7    8 1
    15    7   18 1
    16    7    9 1
    17    9   10 1
    18    9   51 1
    19    9   52 1
    20   10   11 1
    21   10   53 1
    22   10   54 1
    23   11   17 1
    24   11   12 2
    25   12   13 1
    26   12   55 1
    27   13   14 2
    28   13   15 1
    29   15   16 2
    30   15   56 1
    31   16   17 1
    32   16   57 1
    33   17   18 1
    34   17   45 1
    35   18   19 1
    36   18   44 1
    37   19   20 1
    38   19   21 1
    39   19   43 1
    40   21   22 1
    41   21   58 1
    42   21   59 1
    43   22   23 1
    44   22   42 1
    45   23   24 1
    46   23   28 1
    47   24   25 2
    48   24   26 1
    49   26   27 1
    50   26   60 1
    51   26   61 1
    52   27   62 1
    53   28   29 1
    54   29   30 2
    55   29   31 am
    56   31   32 1
    57   31   63 1
    58   32   37 1
    59   32   41 1
    60   32   33 1
    61   33   34 1
    62   33   64 1
    63   33   65 1
    64   34   40 1
    65   34   35 1
    66   34   66 1
    67   35   36 1
    68   35   67 1
    69   35   68 1
    70   36   37 1
    71   36   38 1
    72   36   69 1
    73   37   70 1
    74   37   71 1
    75   38   39 1
    76   38   72 1
    77   38   73 1
    78   39   40 1
    79   39   41 1
    80   39   74 1
    81   40   75 1
    82   40   76 1
    83   41   77 1
    84   41   78 1
    85   42   79 1
    86   42   80 1
    87   42   81 1
    88   43   82 1
    89   45   83 1
    90   45   84 1
    91   45   85 1
@<TRIPOS>MOLECULE
CHEMBL583625
   57    61     0     0     0
SMALL
USER_CHARGES

@<TRIPOS>ATOM
      1 C1          1.1249    2.0468   -0.7254 C.3       1 <0>        -0.1853
      2 C2          0.6183    0.7119   -0.1756 C.3       1 <0>        -0.0358
      3 C3         -0.8817    0.8577    0.1236 C.3       1 <0>         0.0289
      4 N1         -1.3171    0.6551    1.5115 N.pl3     1 <0>        -0.3995
      5 C4         -2.5266    0.7426    2.1044 C.cat     1 <0>         0.2862
      6 N2         -2.4063    0.4825    3.3768 N.pl3     1 <0>        -0.4630
      7 C5         -1.1193    0.2119    3.6623 C.2       1 <0>         0.0872
      8 C6         -0.4032    0.3119    2.4780 C.2       1 <0>         0.1097
      9 C7          1.0152    0.1136    2.1768 C.2       1 <0>        -0.1377
     10 C8          1.5198    0.3025    0.9693 C.2       1 <0>        -0.0234
     11 C9          2.9836    0.0657    0.6890 C.3       1 <0>        -0.0894
     12 C10         3.0963   -0.9331   -0.4694 C.3       1 <0>        -0.1205
     13 C11         2.2721   -0.4316   -1.6562 C.3       1 <0>        -0.1176
     14 C12         0.7947   -0.3426   -1.2687 C.3       1 <0>        -0.0921
     15 H1          0.4572   -1.3104   -0.8980 H         1 <0>         0.0904
     16 C13        -0.0315    0.0506   -2.4950 C.3       1 <0>         0.1798
     17 C14        -0.0072   -1.0907   -3.5137 C.3       1 <0>        -0.1508
     18 C15        -1.4539    0.3205   -2.0768 C.ar      1 <0>        -0.1571
     19 C16        -1.9768    1.6026   -2.1525 C.ar      1 <0>        -0.1011
     20 C17        -3.2901    1.8040   -1.7571 C.ar      1 <0>        -0.1527
     21 C18        -4.0296    0.7278   -1.3037 C.ar      1 <0>         0.0853
     22 N3         -3.4993   -0.4780   -1.2449 N.ar      1 <0>        -0.4663
     23 C19        -2.2555   -0.7076   -1.6185 C.ar      1 <0>         0.0946
     24 O1          0.5229    1.2279   -3.0854 O.3       1 <0>        -0.5378
     25 C20        -0.5689   -0.1291    4.9943 C.ar      1 <0>        -0.0747
     26 C21         0.6073    0.4735    5.4407 C.ar      1 <0>        -0.0512
     27 C22         1.1159    0.1524    6.6821 C.ar      1 <0>        -0.1474
     28 C23         0.4606   -0.7672    7.4852 C.ar      1 <0>         0.1369
     29 C24        -0.7079   -1.3689    7.0462 C.ar      1 <0>        -0.1471
     30 C25        -1.2282   -1.0497    5.8091 C.ar      1 <0>        -0.0635
     31 F1          0.9629   -1.0786    8.7000 F         1 <0>        -0.1228
     32 H2          1.6205    1.8811   -1.6820 H         1 <0>         0.1181
     33 H3          0.2833    2.7252   -0.8649 H         1 <0>         0.0601
     34 H4          1.8320    2.4850   -0.0211 H         1 <0>         0.0737
     35 H5         -1.1873    1.8591   -0.1798 H         1 <0>         0.1150
     36 H6         -1.4183    0.1449   -0.5025 H         1 <0>         0.1647
     37 H7         -3.4506    0.9900    1.6029 H         1 <0>         0.2535
     38 H8          1.6794   -0.1789    2.9767 H         1 <0>         0.1539
     39 H9          3.4614    1.0054    0.4118 H         1 <0>         0.0948
     40 H10         3.4659   -0.3447    1.5762 H         1 <0>         0.0886
     41 H11         4.1406   -1.0286   -0.7667 H         1 <0>         0.0842
     42 H12         2.7191   -1.9045   -0.1497 H         1 <0>         0.0694
     43 H13         2.6283    0.5550   -1.9526 H         1 <0>         0.0871
     44 H14         2.3856   -1.1214   -2.4925 H         1 <0>         0.0831
     45 H15        -0.3286   -2.0143   -3.0322 H         1 <0>         0.0756
     46 H16        -0.6814   -0.8568   -4.3376 H         1 <0>         0.0726
     47 H17         1.0057   -1.2142   -3.8969 H         1 <0>         0.0841
     48 H18        -1.3750    2.4248   -2.5106 H         1 <0>         0.1474
     49 H19        -3.7299    2.7894   -1.8023 H         1 <0>         0.1514
     50 H20        -5.0535    0.8763   -0.9938 H         1 <0>         0.1702
     51 H21        -1.8573   -1.7099   -1.5611 H         1 <0>         0.1678
     52 H22         0.1171    2.0503   -2.7787 H         1 <0>         0.3747
     53 H23         1.1192    1.1899    4.8152 H         1 <0>         0.1425
     54 H24         2.0265    0.6184    7.0286 H         1 <0>         0.1519
     55 H25        -1.2145   -2.0856    7.6755 H         1 <0>         0.1509
     56 H26        -2.1415   -1.5155    5.4698 H         1 <0>         0.1374
     57 H27        -3.1332    0.4842    4.0191 H         1 <0>         0.4646
@<TRIPOS>BOND
     1    1    2 1
     2    1   32 1
     3    1   33 1
     4    1   34 1
     5    2   10 1
     6    2   14 1
     7    2    3 1
     8    3    4 1
     9    3   35 1
    10    3   36 1
    11    4    8 1
    12    4    5 1
    13    5    6 2
    14    5   37 1
    15    6    7 1
    16    6   57 1
    17    7    8 2
    18    7   25 1
    19    8    9 1
    20    9   10 2
    21    9   38 1
    22   10   11 1
    23   11   12 1
    24   11   39 1
    25   11   40 1
    26   12   13 1
    27   12   41 1
    28   12   42 1
    29   13   14 1
    30   13   43 1
    31   13   44 1
    32   14   15 1
    33   14   16 1
    34   16   17 1
    35   16   18 1
    36   16   24 1
    37   17   45 1
    38   17   46 1
    39   17   47 1
    40   18   23 ar
    41   18   19 ar
    42   19   20 ar
    43   19   48 1
    44   20   21 ar
    45   20   49 1
    46   21   22 ar
    47   21   50 1
    48   22   23 ar
    49   23   51 1
    50   24   52 1
    51   25   30 ar
    52   25   26 ar
    53   26   27 ar
    54   26   53 1
    55   27   28 ar
    56   27   54 1
    57   28   29 ar
    58   28   31 1
    59   29   30 ar
    60   29   55 1
    61   30   56 1
@<TRIPOS>MOLECULE
CHEMBL583625__1
   56    60     0     0     0
SMALL
USER_CHARGES

@<TRIPOS>ATOM
      1 C1          1.1249    2.0468   -0.7254 C.3       1 <0>        -0.1788
      2 C2          0.6183    0.7119   -0.1756 C.3       1 <0>        -0.0214
      3 C3         -0.8817    0.8577    0.1236 C.3       1 <0>         0.0460
      4 N1         -1.3171    0.6551    1.5115 N.pl3     1 <0>        -0.4436
      5 C4         -2.5266    0.7426    2.1044 C.2       1 <0>         0.2021
      6 N2         -2.4063    0.4825    3.3768 N.2       1 <0>        -0.4711
      7 C5         -1.1193    0.2119    3.6623 C.2       1 <0>         0.0559
      8 C6         -0.4032    0.3119    2.4780 C.2       1 <0>         0.0186
      9 C7          1.0152    0.1136    2.1768 C.2       1 <0>        -0.0878
     10 C8          1.5198    0.3025    0.9693 C.2       1 <0>        -0.0968
     11 C9          2.9836    0.0657    0.6890 C.3       1 <0>        -0.0771
     12 C10         3.0963   -0.9331   -0.4694 C.3       1 <0>        -0.1180
     13 C11         2.2721   -0.4316   -1.6562 C.3       1 <0>        -0.1121
     14 C12         0.7947   -0.3426   -1.2687 C.3       1 <0>        -0.0899
     15 H1          0.4572   -1.3104   -0.8980 H         1 <0>         0.0842
     16 C13        -0.0315    0.0506   -2.4950 C.3       1 <0>         0.1806
     17 C14        -0.0072   -1.0907   -3.5137 C.3       1 <0>        -0.1471
     18 C15        -1.4539    0.3205   -2.0768 C.ar      1 <0>        -0.1472
     19 C16        -1.9768    1.6026   -2.1525 C.ar      1 <0>        -0.1015
     20 C17        -3.2901    1.8040   -1.7571 C.ar      1 <0>        -0.1554
     21 C18        -4.0296    0.7278   -1.3037 C.ar      1 <0>         0.0906
     22 N3         -3.4993   -0.4780   -1.2449 N.ar      1 <0>        -0.4659
     23 C19        -2.2555   -0.7076   -1.6185 C.ar      1 <0>         0.1017
     24 O1          0.5229    1.2279   -3.0854 O.3       1 <0>        -0.5439
     25 C20        -0.5689   -0.1291    4.9943 C.ar      1 <0>        -0.0065
     26 C21         0.4851   -1.0361    5.1047 C.ar      1 <0>        -0.0828
     27 C22         0.9942   -1.3504    6.3476 C.ar      1 <0>        -0.1509
     28 C23         0.4599   -0.7672    7.4854 C.ar      1 <0>         0.0964
     29 C24        -0.5874    0.1340    7.3811 C.ar      1 <0>        -0.1513
     30 C25        -1.0991    0.4600    6.1423 C.ar      1 <0>        -0.0655
     31 F1          0.9617   -1.0787    8.7005 F         1 <0>        -0.1398
     32 H2          1.6205    1.8811   -1.6820 H         1 <0>         0.1067
     33 H3          0.2833    2.7252   -0.8649 H         1 <0>         0.0525
     34 H4          1.8320    2.4850   -0.0211 H         1 <0>         0.0650
     35 H5         -1.1873    1.8591   -0.1798 H         1 <0>         0.0855
     36 H6         -1.4183    0.1449   -0.5025 H         1 <0>         0.1385
     37 H7         -3.4506    0.9900    1.6029 H         1 <0>         0.2005
     38 H8          1.6794   -0.1789    2.9767 H         1 <0>         0.1321
     39 H9          3.4614    1.0054    0.4118 H         1 <0>         0.0797
     40 H10         3.4659   -0.3447    1.5762 H         1 <0>         0.0767
     41 H11         4.1406   -1.0286   -0.7667 H         1 <0>         0.0726
     42 H12         2.7191   -1.9045   -0.1497 H         1 <0>         0.0649
     43 H13         2.6283    0.5550   -1.9526 H         1 <0>         0.0814
     44 H14         2.3856   -1.1214   -2.4925 H         1 <0>         0.0726
     45 H15        -0.3286   -2.0143   -3.0322 H         1 <0>         0.0735
     46 H16        -0.6814   -0.8568   -4.3376 H         1 <0>         0.0678
     47 H17         1.0057   -1.2142   -3.8969 H         1 <0>         0.0789
     48 H18        -1.3750    2.4248   -2.5106 H         1 <0>         0.1401
     49 H19        -3.7299    2.7894   -1.8023 H         1 <0>         0.1443
     50 H20        -5.0535    0.8763   -0.9938 H         1 <0>         0.1641
     51 H21        -1.8573   -1.7099   -1.5611 H         1 <0>         0.1611
     52 H22         0.1171    2.0503   -2.7787 H         1 <0>         0.3748
     53 H23         0.9017   -1.4917    4.2185 H         1 <0>         0.1330
     54 H24         1.8103   -2.0525    6.4342 H         1 <0>         0.1376
     55 H25        -1.0009    0.5853    8.2709 H         1 <0>         0.1376
     56 H26        -1.9123    1.1661    6.0616 H         1 <0>         0.1367
@<TRIPOS>BOND
     1    1    2 1
     2    1   32 1
     3    1   33 1
     4    1   34 1
     5    2   10 1
     6    2   14 1
     7    2    3 1
     8    3    4 1
     9    3   35 1
    10    3   36 1
    11    4    8 1
    12    4    5 1
    13    5    6 2
    14    5   37 1
    15    6    7 1
    16    7    8 2
    17    7   25 1
    18    8    9 1
    19    9   10 2
    20    9   38 1
    21   10   11 1
    22   11   12 1
    23   11   39 1
    24   11   40 1
    25   12   13 1
    26   12   41 1
    27   12   42 1
    28   13   14 1
    29   13   43 1
    30   13   44 1
    31   14   15 1
    32   14   16 1
    33   16   17 1
    34   16   18 1
    35   16   24 1
    36   17   45 1
    37   17   46 1
    38   17   47 1
    39   18   23 ar
    40   18   19 ar
    41   19   20 ar
    42   19   48 1
    43   20   21 ar
    44   20   49 1
    45   21   22 ar
    46   21   50 1
    47   22   23 ar
    48   23   51 1
    49   24   52 1
    50   25   30 ar
    51   25   26 ar
    52   26   27 ar
    53   26   53 1
    54   27   28 ar
    55   27   54 1
    56   28   29 ar
    57   28   31 1
    58   29   30 ar
    59   29   55 1
    60   30   56 1
@<TRIPOS>MOLECULE
CHEMBL551863
   71    76     0     0     0
SMALL
USER_CHARGES

@<TRIPOS>ATOM
      1 C1          0.2589    1.6401    0.3678 C.3       1 <0>        -0.1252
      2 C2          0.0327    0.1764   -0.0103 C.3       1 <0>        -0.0789
      3 C3         -1.4376   -0.1743   -0.1685 C.3       1 <0>         0.0904
      4 O1         -2.2680    0.5013    0.7508 O.3       1 <0>        -0.3651
      5 C4         -1.9306    0.5604    2.1130 C.3       1 <0>         0.1819
      6 H1         -1.3017    1.4651    2.2737 H         1 <0>         0.0655
      7 C5         -1.1221   -0.5998    2.6273 C.2       1 <0>        -0.1019
      8 C6         -1.6547   -1.7036    3.1144 C.2       1 <0>        -0.0811
      9 C7         -3.1065   -2.0908    2.9356 C.3       1 <0>        -0.0758
     10 C8         -3.1708   -3.5595    2.4928 C.3       1 <0>        -0.1678
     11 C9         -2.3747   -4.4192    3.4343 C.2       1 <0>         0.3867
     12 O2         -2.7769   -5.5278    3.7184 O.2       1 <0>        -0.4671
     13 C10        -1.1705   -3.9487    3.9907 C.2       1 <0>        -0.2381
     14 C11        -0.8061   -2.6672    3.8226 C.2       1 <0>         0.0147
     15 C12         0.4783   -2.1064    4.3912 C.3       1 <0>        -0.0941
     16 C13         1.2260   -1.4190    3.2654 C.3       1 <0>        -0.1156
     17 C14         0.3883   -0.4496    2.4435 C.3       1 <0>        -0.0438
     18 H2          0.6858    0.5658    2.6706 H         1 <0>         0.0931
     19 C15         0.6654   -0.8259    0.9754 C.3       1 <0>        -0.0787
     20 H3          0.3136   -1.8480    0.7698 H         1 <0>         0.0837
     21 C16         2.1717   -0.7104    0.6536 C.3       1 <0>        -0.1166
     22 C17         2.2114   -0.5604   -0.8864 C.3       1 <0>        -0.1334
     23 C18         0.8106   -0.1020   -1.3169 C.3       1 <0>         0.1437
     24 C19         0.1285   -1.1412   -2.1647 C.2       1 <0>        -0.1467
     25 C20        -0.0394   -2.4190   -1.9271 C.2       1 <0>        -0.1592
     26 C21        -0.3318   -0.3737   -3.4046 C.3       1 <0>        -0.1305
     27 C22         0.7166    0.7703   -3.4594 C.3       1 <0>         0.0451
     28 O3          0.9024    1.1149   -2.0695 O.3       1 <0>        -0.3543
     29 C23        -3.1426    0.8241    2.9689 C.ar      1 <0>        -0.1422
     30 C24        -2.9908    1.3701    4.2303 C.ar      1 <0>        -0.0570
     31 C25        -4.0993    1.6130    5.0173 C.ar      1 <0>        -0.1972
     32 C26        -5.3679    1.3083    4.5404 C.ar      1 <0>         0.2179
     33 C27        -5.5168    0.7599    3.2728 C.ar      1 <0>        -0.2005
     34 C28        -4.4044    0.5248    2.4889 C.ar      1 <0>        -0.0454
     35 N1         -6.4912    1.5522    5.3338 N.pl3     1 <0>        -0.6384
     36 C29        -6.3323    2.1301    6.6706 C.3       1 <0>         0.0923
     37 C30        -7.8284    1.2302    4.8293 C.3       1 <0>         0.0921
     38 H4          1.3123    1.8895    0.2408 H         1 <0>         0.0615
     39 H5         -0.3459    2.2792   -0.2756 H         1 <0>         0.0672
     40 H6         -0.0285    1.7954    1.4077 H         1 <0>         0.0595
     41 H7         -1.7567    0.0809   -1.1911 H         1 <0>         0.0913
     42 H8         -1.5755   -1.2558   -0.0439 H         1 <0>         0.0474
     43 H9         -3.6460   -1.9628    3.8715 H         1 <0>         0.0813
     44 H10        -3.5609   -1.4959    2.1385 H         1 <0>         0.0943
     45 H11        -4.2091   -3.8928    2.4952 H         1 <0>         0.0956
     46 H12        -2.7616   -3.6476    1.4864 H         1 <0>         0.0973
     47 H13        -0.5373   -4.6226    4.5509 H         1 <0>         0.1366
     48 H14         0.2481   -1.3909    5.1801 H         1 <0>         0.0881
     49 H15         1.0797   -2.9205    4.7969 H         1 <0>         0.0830
     50 H16         2.0687   -0.8743    3.6922 H         1 <0>         0.0750
     51 H17         1.6166   -2.1882    2.5960 H         1 <0>         0.0705
     52 H18         2.6102    0.1561    1.1391 H         1 <0>         0.0746
     53 H19         2.6931   -1.6197    0.9523 H         1 <0>         0.0691
     54 H20         2.9505    0.1899   -1.1696 H         1 <0>         0.0780
     55 H21         2.4580   -1.5123   -1.3513 H         1 <0>         0.0709
     56 H22         0.3399   -2.8529   -1.0137 H         1 <0>         0.1061
     57 H23        -0.5571   -3.0383   -2.6447 H         1 <0>         0.1110
     58 H24        -0.2656   -0.9993   -4.2918 H         1 <0>         0.0855
     59 H25        -1.3350    0.0255   -3.2747 H         1 <0>         0.0902
     60 H26         1.6494    0.4189   -3.8970 H         1 <0>         0.0630
     61 H27         0.3225    1.6192   -4.0160 H         1 <0>         0.0941
     62 H28        -2.0041    1.6064    4.6006 H         1 <0>         0.1182
     63 H29        -3.9801    2.0391    6.0025 H         1 <0>         0.1220
     64 H30        -6.5017    0.5215    2.8992 H         1 <0>         0.1215
     65 H31        -4.5198    0.1026    1.5015 H         1 <0>         0.1270
     66 H32        -6.3696    3.2174    6.6032 H         1 <0>         0.0485
     67 H33        -7.1367    1.7783    7.3166 H         1 <0>         0.0663
     68 H34        -5.3722    1.8247    7.0867 H         1 <0>         0.0687
     69 H35        -8.0832    0.2064    5.1031 H         1 <0>         0.0485
     70 H36        -8.5559    1.9148    5.2654 H         1 <0>         0.0662
     71 H37        -7.8409    1.3299    3.7439 H         1 <0>         0.0694
@<TRIPOS>BOND
     1    1    2 1
     2    1   38 1
     3    1   39 1
     4    1   40 1
     5    2   19 1
     6    2   23 1
     7    2    3 1
     8    3    4 1
     9    3   41 1
    10    3   42 1
    11    4    5 1
    12    5    6 1
    13    5    7 1
    14    5   29 1
    15    7   17 1
    16    7    8 2
    17    8   14 1
    18    8    9 1
    19    9   10 1
    20    9   43 1
    21    9   44 1
    22   10   11 1
    23   10   45 1
    24   10   46 1
    25   11   12 2
    26   11   13 1
    27   13   14 2
    28   13   47 1
    29   14   15 1
    30   15   16 1
    31   15   48 1
    32   15   49 1
    33   16   17 1
    34   16   50 1
    35   16   51 1
    36   17   18 1
    37   17   19 1
    38   19   20 1
    39   19   21 1
    40   21   22 1
    41   21   52 1
    42   21   53 1
    43   22   23 1
    44   22   54 1
    45   22   55 1
    46   23   28 1
    47   23   24 1
    48   24   25 2
    49   24   26 1
    50   25   56 1
    51   25   57 1
    52   26   27 1
    53   26   58 1
    54   26   59 1
    55   27   28 1
    56   27   60 1
    57   27   61 1
    58   29   34 ar
    59   29   30 ar
    60   30   31 ar
    61   30   62 1
    62   31   32 ar
    63   31   63 1
    64   32   33 ar
    65   32   35 1
    66   33   34 ar
    67   33   64 1
    68   34   65 1
    69   35   36 1
    70   35   37 1
    71   36   66 1
    72   36   67 1
    73   36   68 1
    74   37   69 1
    75   37   70 1
    76   37   71 1
@<TRIPOS>MOLECULE
CHEMBL520276
   57    59     0     0     0
SMALL
USER_CHARGES

@<TRIPOS>ATOM
      1 C1          0.0377    1.7279    0.4122 C.3       1 <0>        -0.1568
      2 C2          0.0990    0.2064    0.2629 C.3       1 <0>         0.1135
      3 N1          0.6737   -0.1336   -1.0411 N.am      1 <0>        -0.5945
      4 C3          2.1093   -0.3993   -1.1621 C.3       1 <0>         0.0890
      5 C4          2.3720   -1.8907   -0.9440 C.3       1 <0>         0.0642
      6 C5          3.8713   -2.1682   -1.0704 C.3       1 <0>         0.0973
      7 N2          4.5998   -1.3783   -0.0746 N.am      1 <0>        -0.7286
      8 C6          5.9475   -1.3854   -0.0636 C.2       1 <0>         0.6138
      9 O1          6.5592   -2.0479   -0.8807 O.2       1 <0>        -0.5531
     10 C7          6.6773   -0.5940    0.9340 C.2       1 <0>        -0.3718
     11 C8          6.1093    0.2160    1.9456 C.2       1 <0>         0.1217
     12 N3          7.0792    0.7547    2.6294 N.2       1 <0>        -0.2904
     13 N4          8.3046    0.3291    2.1054 N.pl3     1 <0>        -0.3484
     14 C9          8.0610   -0.5025    1.0686 C.2       1 <0>         0.4484
     15 N5          9.0048   -1.1389    0.2884 N.pl3     1 <0>        -0.8243
     16 C10         9.5713    0.6988    2.5794 C.ar      1 <0>         0.1438
     17 C11        10.6193   -0.2111    2.5442 C.ar      1 <0>        -0.1188
     18 C12        11.8663    0.1548    3.0116 C.ar      1 <0>        -0.1249
     19 C13        12.0717    1.4284    3.5151 C.ar      1 <0>         0.1007
     20 C14        11.0274    2.3372    3.5515 C.ar      1 <0>        -0.1281
     21 C15         9.7806    1.9770    3.0794 C.ar      1 <0>        -0.0770
     22 F1         13.2922    1.7845    3.9719 F         1 <0>        -0.1311
     23 C16         1.6128   -2.7016   -1.9961 C.3       1 <0>         0.4810
     24 F2          1.9490   -2.2394   -3.2730 F         1 <0>        -0.1520
     25 F3          1.9588   -4.0524   -1.8829 F         1 <0>        -0.1779
     26 F4          0.2363   -2.5543   -1.7943 F         1 <0>        -0.1672
     27 O2          1.9262   -2.2671    0.3605 O.3       1 <0>        -0.5231
     28 C17        -0.1184   -0.2019   -2.1294 C.2       1 <0>         0.5711
     29 O3          0.3412   -0.5671   -3.1934 O.2       1 <0>        -0.5007
     30 C18        -1.5488    0.1681   -2.0285 C.ar      1 <0>         0.0864
     31 C19        -2.3891   -0.0127   -3.1266 C.ar      1 <0>        -0.0362
     32 C20        -3.7268    0.3390   -3.0158 C.ar      1 <0>        -0.0768
     33 C21        -4.1759    0.8584   -1.8123 C.ar      1 <0>        -0.1325
     34 C22        -3.2839    1.0106   -0.7625 C.ar      1 <0>         0.0911
     35 N6         -2.0220    0.6643   -0.8919 N.ar      1 <0>        -0.4310
     36 Cl1        -1.7706   -0.6678   -4.6106 Cl        1 <0>        -0.0105
     37 H1          1.0438    2.1410    0.3396 H         1 <0>         0.0451
     38 H2         -0.5846    2.1458   -0.3792 H         1 <0>         0.0636
     39 H3         -0.3899    1.9808    1.3824 H         1 <0>         0.0649
     40 H4          0.7213   -0.2115    1.0543 H         1 <0>         0.0689
     41 H5         -0.9071   -0.2066    0.3355 H         1 <0>         0.1072
     42 H6          2.4493   -0.1122   -2.1571 H         1 <0>         0.1125
     43 H7          2.6502    0.1784   -0.4126 H         1 <0>         0.1032
     44 H8          4.0600   -3.2285   -0.9019 H         1 <0>         0.0956
     45 H9          4.2087   -1.8935   -2.0697 H         1 <0>         0.0971
     46 H10         4.1122   -0.8502    0.5767 H         1 <0>         0.3949
     47 H11         5.0537    0.3629    2.1207 H         1 <0>         0.1930
     48 H12         8.7237   -1.7172   -0.4378 H         1 <0>         0.4337
     49 H13         9.9493   -1.0079    0.4663 H         1 <0>         0.4041
     50 H14        10.4595   -1.2046    2.1518 H         1 <0>         0.1401
     51 H15        12.6817   -0.5529    2.9846 H         1 <0>         0.1497
     52 H16        11.1893    3.3297    3.9453 H         1 <0>         0.1493
     53 H17         8.9677    2.6877    3.1031 H         1 <0>         0.1482
     54 H18         2.3660   -1.7919    1.0788 H         1 <0>         0.3880
     55 H19        -4.4024    0.2111   -3.8487 H         1 <0>         0.1527
     56 H20        -5.2111    1.1423   -1.6936 H         1 <0>         0.1505
     57 H21        -3.6312    1.4152    0.1767 H         1 <0>         0.1713
@<TRIPOS>BOND
     1    1    2 1
     2    1   37 1
     3    1   38 1
     4    1   39 1
     5    2    3 1
     6    2   40 1
     7    2   41 1
     8    3    4 1
     9    3   28 am
    10    4    5 1
    11    4   42 1
    12    4   43 1
    13    5    6 1
    14    5   23 1
    15    5   27 1
    16    6    7 1
    17    6   44 1
    18    6   45 1
    19    7    8 am
    20    7   46 1
    21    8    9 2
    22    8   10 1
    23   10   14 2
    24   10   11 1
    25   11   12 2
    26   11   47 1
    27   12   13 1
    28   13   14 1
    29   13   16 1
    30   14   15 1
    31   15   48 1
    32   15   49 1
    33   16   21 ar
    34   16   17 ar
    35   17   18 ar
    36   17   50 1
    37   18   19 ar
    38   18   51 1
    39   19   20 ar
    40   19   22 1
    41   20   21 ar
    42   20   52 1
    43   21   53 1
    44   23   24 1
    45   23   25 1
    46   23   26 1
    47   27   54 1
    48   28   29 2
    49   28   30 1
    50   30   35 ar
    51   30   31 ar
    52   31   32 ar
    53   31   36 1
    54   32   33 ar
    55   32   55 1
    56   33   34 ar
    57   33   56 1
    58   34   35 ar
    59   34   57 1
@<TRIPOS>MOLECULE
CHEMBL520276__1
   57    59     0     0     0
SMALL
USER_CHARGES

@<TRIPOS>ATOM
      1 C1         -0.2441    1.4833   -0.0853 C.3       1 <0>        -0.1588
      2 C2         -0.0009   -0.0243    0.0089 C.3       1 <0>         0.1075
      3 N1          0.6865   -0.4846   -1.2001 N.am      1 <0>        -0.5914
      4 C3          2.1468   -0.6012   -1.2130 C.3       1 <0>         0.0906
      5 C4          2.5503   -2.0052   -0.7581 C.3       1 <0>         0.0664
      6 C5          4.0743   -2.0885   -0.6518 C.3       1 <0>         0.0960
      7 N2          4.4607   -3.4328   -0.2162 N.am      1 <0>        -0.7286
      8 C6          5.7628   -3.7399   -0.0525 C.2       1 <0>         0.6118
      9 O1          6.6174   -2.9006   -0.2665 O.2       1 <0>        -0.5638
     10 C7          6.1498   -5.0867    0.3839 C.2       1 <0>        -0.3690
     11 C8          5.2766   -6.1643    0.6640 C.2       1 <0>         0.1254
     12 N3          5.9966   -7.1905    1.0205 N.2       1 <0>        -0.2928
     13 N4          7.3499   -6.8372    0.9904 N.pl3     1 <0>        -0.3497
     14 C9          7.4471   -5.5487    0.5951 C.2       1 <0>         0.4457
     15 N5          8.6115   -4.8259    0.4338 N.pl3     1 <0>        -0.8252
     16 C10         8.4241   -7.6793    1.3109 C.ar      1 <0>         0.1460
     17 C11         9.6271   -7.5621    0.6278 C.ar      1 <0>        -0.1195
     18 C12        10.6840   -8.3926    0.9449 C.ar      1 <0>        -0.1249
     19 C13        10.5445   -9.3417    1.9436 C.ar      1 <0>         0.0991
     20 C14         9.3453   -9.4604    2.6259 C.ar      1 <0>        -0.1278
     21 C15         8.2880   -8.6277    2.3158 C.ar      1 <0>        -0.0778
     22 F1         11.5796  -10.1532    2.2524 F         1 <0>        -0.1318
     23 C16         1.9270   -2.2974    0.6083 C.3       1 <0>         0.4709
     24 F2          0.5335   -2.2212    0.5111 F         1 <0>        -0.1625
     25 F3          2.2960   -3.5811    1.0243 F         1 <0>        -0.1718
     26 F4          2.3817   -1.3569    1.5389 F         1 <0>        -0.1693
     27 O2          2.0859   -2.9658   -1.7087 O.3       1 <0>        -0.5227
     28 C17        -0.0245   -0.8007   -2.3005 C.2       1 <0>         0.5778
     29 O3          0.5352   -1.2709   -3.2714 O.2       1 <0>        -0.5042
     30 C18        -1.4879   -0.5752   -2.3266 C.ar      1 <0>         0.0835
     31 C19        -2.2359   -1.0129   -3.4192 C.ar      1 <0>        -0.0358
     32 C20        -3.6061   -0.7939   -3.4282 C.ar      1 <0>        -0.0771
     33 C21        -4.1786   -0.1457   -2.3457 C.ar      1 <0>        -0.1316
     34 C22        -3.3736    0.2619   -1.2938 C.ar      1 <0>         0.0915
     35 N6         -2.0780    0.0372   -1.3074 N.ar      1 <0>        -0.4300
     36 Cl1        -1.4641   -1.8195   -4.7486 Cl        1 <0>        -0.0121
     37 H1          0.7109    2.0002   -0.1794 H         1 <0>         0.0454
     38 H2         -0.8609    1.6980   -0.9580 H         1 <0>         0.0651
     39 H3         -0.7555    1.8258    0.8143 H         1 <0>         0.0647
     40 H4          0.6159   -0.2390    0.8816 H         1 <0>         0.0686
     41 H5         -0.9559   -0.5412    0.1030 H         1 <0>         0.1086
     42 H6          2.5163   -0.4265   -2.2235 H         1 <0>         0.1150
     43 H7          2.5763    0.1374   -0.5363 H         1 <0>         0.1065
     44 H8          4.5184   -1.8804   -1.6252 H         1 <0>         0.0966
     45 H9          4.4286   -1.3558    0.0733 H         1 <0>         0.0918
     46 H10         3.7794   -4.1019   -0.0456 H         1 <0>         0.4081
     47 H11         4.1991   -6.1405    0.5947 H         1 <0>         0.1937
     48 H12         8.5720   -3.9003    0.1465 H         1 <0>         0.4330
     49 H13         9.4696   -5.2435    0.6078 H         1 <0>         0.4033
     50 H14         9.7361   -6.8223   -0.1514 H         1 <0>         0.1400
     51 H15        11.6198   -8.3019    0.4134 H         1 <0>         0.1492
     52 H16         9.2381  -10.2017    3.4039 H         1 <0>         0.1490
     53 H17         7.3546   -8.7170    2.8516 H         1 <0>         0.1482
     54 H18         2.4413   -2.8413   -2.5994 H         1 <0>         0.4041
     55 H19        -4.2123   -1.1208   -4.2601 H         1 <0>         0.1528
     56 H20        -5.2422    0.0405   -2.3220 H         1 <0>         0.1507
     57 H21        -3.8173    0.7674   -0.4487 H         1 <0>         0.1715
@<TRIPOS>BOND
     1    1    2 1
     2    1   37 1
     3    1   38 1
     4    1   39 1
     5    2    3 1
     6    2   40 1
     7    2   41 1
     8    3    4 1
     9    3   28 am
    10    4    5 1
    11    4   42 1
    12    4   43 1
    13    5    6 1
    14    5   23 1
    15    5   27 1
    16    6    7 1
    17    6   44 1
    18    6   45 1
    19    7    8 am
    20    7   46 1
    21    8    9 2
    22    8   10 1
    23   10   14 2
    24   10   11 1
    25   11   12 2
    26   11   47 1
    27   12   13 1
    28   13   14 1
    29   13   16 1
    30   14   15 1
    31   15   48 1
    32   15   49 1
    33   16   21 ar
    34   16   17 ar
    35   17   18 ar
    36   17   50 1
    37   18   19 ar
    38   18   51 1
    39   19   20 ar
    40   19   22 1
    41   20   21 ar
    42   20   52 1
    43   21   53 1
    44   23   24 1
    45   23   25 1
    46   23   26 1
    47   27   54 1
    48   28   29 2
    49   28   30 1
    50   30   35 ar
    51   30   31 ar
    52   31   32 ar
    53   31   36 1
    54   32   33 ar
    55   32   55 1
    56   33   34 ar
    57   33   56 1
    58   34   35 ar
    59   34   57 1
@<TRIPOS>MOLECULE
CHEMBL565320
   55    58     0     0     0
SMALL
USER_CHARGES

@<TRIPOS>ATOM
      1 C1          1.7360    0.7219   -0.2862 C.3       1 <0>        -0.1733
      2 C2          1.3363   -0.7301   -0.5562 C.3       1 <0>        -0.0395
      3 C3          0.0118   -1.0038    0.1729 C.3       1 <0>         0.0441
      4 N1          0.0087   -2.0571    1.1964 N.pl3     1 <0>        -0.4058
      5 C4         -0.9539   -2.5125    2.0259 C.cat     1 <0>         0.2887
      6 N2         -0.4681   -3.4643    2.7737 N.pl3     1 <0>        -0.4644
      7 C5          0.8244   -3.6695    2.4598 C.2       1 <0>         0.0851
      8 C6          1.1498   -2.7801    1.4457 C.2       1 <0>         0.1141
      9 C7          2.3928   -2.5580    0.7056 C.2       1 <0>        -0.1423
     10 C8          2.5158   -1.6141   -0.2122 C.2       1 <0>        -0.0184
     11 C9          3.8058   -1.4285   -0.9731 C.3       1 <0>        -0.0899
     12 C10         3.4949   -1.5042   -2.4730 C.3       1 <0>        -0.1204
     13 C11         2.3821   -0.5117   -2.8132 C.3       1 <0>        -0.1233
     14 C12         1.1023   -0.8800   -2.0599 C.3       1 <0>        -0.0992
     15 H1          0.8324   -1.9118   -2.2846 H         1 <0>         0.0861
     16 C13        -0.0315    0.0506   -2.4950 C.3       1 <0>         0.1379
     17 C14        -0.0947    0.0977   -4.0230 C.3       1 <0>        -0.1476
     18 C15        -1.3601   -0.4727   -1.9455 C.3       1 <0>        -0.1453
     19 C16        -2.4983    0.1143   -2.7398 C.2       1 <0>        -0.1604
     20 C17        -3.3788   -0.6748   -3.3040 C.2       1 <0>        -0.1795
     21 O1          0.2094    1.3646   -1.9875 O.3       1 <0>        -0.5466
     22 C18         1.7318   -4.6609    3.0821 C.ar      1 <0>        -0.0756
     23 C19         3.0244   -4.2903    3.4531 C.ar      1 <0>        -0.0509
     24 C20         3.8657   -5.2174    4.0323 C.ar      1 <0>        -0.1474
     25 C21         3.4289   -6.5150    4.2454 C.ar      1 <0>         0.1371
     26 C22         2.1459   -6.8882    3.8782 C.ar      1 <0>        -0.1474
     27 C23         1.2947   -5.9668    3.3044 C.ar      1 <0>        -0.0638
     28 F1          4.2568   -7.4195    4.8126 F         1 <0>        -0.1227
     29 H2          1.9562    1.2198   -1.2305 H         1 <0>         0.1197
     30 H3          0.9160    1.2375    0.2137 H         1 <0>         0.0641
     31 H4          2.6204    0.7429    0.3506 H         1 <0>         0.0655
     32 H5         -0.3065   -0.0756    0.6475 H         1 <0>         0.1165
     33 H6         -0.7350   -1.2642   -0.5771 H         1 <0>         0.1600
     34 H7         -1.9689   -2.1454    2.0646 H         1 <0>         0.2624
     35 H8          3.2490   -3.1759    0.9325 H         1 <0>         0.1530
     36 H9          4.2358   -0.4555   -0.7355 H         1 <0>         0.0950
     37 H10         4.5083   -2.2170   -0.7031 H         1 <0>         0.0876
     38 H11         4.3903   -1.2555   -3.0427 H         1 <0>         0.0825
     39 H12         3.1715   -2.5138   -2.7266 H         1 <0>         0.0683
     40 H13         2.6936    0.4929   -2.5272 H         1 <0>         0.0842
     41 H14         2.1902   -0.5373   -3.8859 H         1 <0>         0.0840
     42 H15        -0.1763   -0.9162   -4.4146 H         1 <0>         0.0711
     43 H16        -0.9637    0.6780   -4.3330 H         1 <0>         0.0740
     44 H17         0.8110    0.5648   -4.4098 H         1 <0>         0.0739
     45 H18        -1.3835   -1.5595   -2.0257 H         1 <0>         0.0839
     46 H19        -1.4598   -0.1833   -0.8994 H         1 <0>         0.0862
     47 H20        -2.5881    1.1855   -2.8440 H         1 <0>         0.1190
     48 H21        -3.2889   -1.7460   -3.1998 H         1 <0>         0.0951
     49 H22        -4.1945   -0.2542   -3.8732 H         1 <0>         0.1051
     50 H23        -0.0309    1.4772   -1.0576 H         1 <0>         0.3719
     51 H24         3.3660   -3.2793    3.2868 H         1 <0>         0.1428
     52 H25         4.8667   -4.9315    4.3199 H         1 <0>         0.1520
     53 H26         1.8104   -7.9010    4.0457 H         1 <0>         0.1508
     54 H27         0.2933   -6.2573    3.0230 H         1 <0>         0.1371
     55 H28        -0.9626   -3.9497    3.4525 H         1 <0>         0.4650
@<TRIPOS>BOND
     1    1    2 1
     2    1   29 1
     3    1   30 1
     4    1   31 1
     5    2   10 1
     6    2   14 1
     7    2    3 1
     8    3    4 1
     9    3   32 1
    10    3   33 1
    11    4    8 1
    12    4    5 1
    13    5    6 2
    14    5   34 1
    15    6    7 1
    16    6   55 1
    17    7    8 2
    18    7   22 1
    19    8    9 1
    20    9   10 2
    21    9   35 1
    22   10   11 1
    23   11   12 1
    24   11   36 1
    25   11   37 1
    26   12   13 1
    27   12   38 1
    28   12   39 1
    29   13   14 1
    30   13   40 1
    31   13   41 1
    32   14   15 1
    33   14   16 1
    34   16   17 1
    35   16   18 1
    36   16   21 1
    37   17   42 1
    38   17   43 1
    39   17   44 1
    40   18   19 1
    41   18   45 1
    42   18   46 1
    43   19   20 2
    44   19   47 1
    45   20   48 1
    46   20   49 1
    47   21   50 1
    48   22   27 ar
    49   22   23 ar
    50   23   24 ar
    51   23   51 1
    52   24   25 ar
    53   24   52 1
    54   25   26 ar
    55   25   28 1
    56   26   27 ar
    57   26   53 1
    58   27   54 1
@<TRIPOS>MOLECULE
CHEMBL565320__1
   54    57     0     0     0
SMALL
USER_CHARGES

@<TRIPOS>ATOM
      1 C1          1.7360    0.7219   -0.2862 C.3       1 <0>        -0.1669
      2 C2          1.3363   -0.7301   -0.5562 C.3       1 <0>        -0.0242
      3 C3          0.0118   -1.0038    0.1729 C.3       1 <0>         0.0578
      4 N1          0.0087   -2.0571    1.1964 N.pl3     1 <0>        -0.4493
      5 C4         -0.9539   -2.5125    2.0259 C.2       1 <0>         0.1974
      6 N2         -0.4681   -3.4643    2.7737 N.2       1 <0>        -0.4716
      7 C5          0.8244   -3.6695    2.4598 C.2       1 <0>         0.0551
      8 C6          1.1498   -2.7801    1.4457 C.2       1 <0>         0.0238
      9 C7          2.3928   -2.5580    0.7056 C.2       1 <0>        -0.0922
     10 C8          2.5158   -1.6141   -0.2122 C.2       1 <0>        -0.0914
     11 C9          3.8058   -1.4285   -0.9731 C.3       1 <0>        -0.0776
     12 C10         3.4949   -1.5042   -2.4730 C.3       1 <0>        -0.1180
     13 C11         2.3821   -0.5117   -2.8132 C.3       1 <0>        -0.1179
     14 C12         1.1023   -0.8800   -2.0599 C.3       1 <0>        -0.0969
     15 H1          0.8324   -1.9118   -2.2846 H         1 <0>         0.0804
     16 C13        -0.0315    0.0506   -2.4950 C.3       1 <0>         0.1404
     17 C14        -0.0947    0.0977   -4.0230 C.3       1 <0>        -0.1435
     18 C15        -1.3601   -0.4727   -1.9455 C.3       1 <0>        -0.1452
     19 C16        -2.4983    0.1143   -2.7398 C.2       1 <0>        -0.1516
     20 C17        -3.3788   -0.6748   -3.3040 C.2       1 <0>        -0.1900
     21 O1          0.2094    1.3646   -1.9875 O.3       1 <0>        -0.5531
     22 C18         1.7318   -4.6609    3.0821 C.ar      1 <0>        -0.0077
     23 C19         2.7084   -5.2946    2.3138 C.ar      1 <0>        -0.0826
     24 C20         3.5511   -6.2173    2.8981 C.ar      1 <0>        -0.1511
     25 C21         3.4284   -6.5153    4.2457 C.ar      1 <0>         0.0969
     26 C22         2.4595   -5.8888    5.0132 C.ar      1 <0>        -0.1515
     27 C23         1.6163   -4.9597    4.4398 C.ar      1 <0>        -0.0652
     28 F1          4.2558   -7.4200    4.8133 F         1 <0>        -0.1396
     29 H2          1.9562    1.2198   -1.2305 H         1 <0>         0.1084
     30 H3          0.9160    1.2375    0.2137 H         1 <0>         0.0561
     31 H4          2.6204    0.7429    0.3506 H         1 <0>         0.0576
     32 H5         -0.3065   -0.0756    0.6475 H         1 <0>         0.0852
     33 H6         -0.7350   -1.2642   -0.5771 H         1 <0>         0.1317
     34 H7         -1.9689   -2.1454    2.0646 H         1 <0>         0.2083
     35 H8          3.2490   -3.1759    0.9325 H         1 <0>         0.1318
     36 H9          4.2358   -0.4555   -0.7355 H         1 <0>         0.0801
     37 H10         4.5083   -2.2170   -0.7031 H         1 <0>         0.0760
     38 H11         4.3903   -1.2555   -3.0427 H         1 <0>         0.0710
     39 H12         3.1715   -2.5138   -2.7266 H         1 <0>         0.0639
     40 H13         2.6936    0.4929   -2.5272 H         1 <0>         0.0786
     41 H14         2.1902   -0.5373   -3.8859 H         1 <0>         0.0737
     42 H15        -0.1763   -0.9162   -4.4146 H         1 <0>         0.0682
     43 H16        -0.9637    0.6780   -4.3330 H         1 <0>         0.0688
     44 H17         0.8110    0.5648   -4.4098 H         1 <0>         0.0696
     45 H18        -1.3835   -1.5595   -2.0257 H         1 <0>         0.0835
     46 H19        -1.4598   -0.1833   -0.8994 H         1 <0>         0.0929
     47 H20        -2.5881    1.1855   -2.8440 H         1 <0>         0.1145
     48 H21        -4.1945   -0.2542   -3.8732 H         1 <0>         0.1002
     49 H22        -3.2889   -1.7460   -3.1998 H         1 <0>         0.0952
     50 H23        -0.0309    1.4772   -1.0576 H         1 <0>         0.3745
     51 H24         2.8044   -5.0636    1.2632 H         1 <0>         0.1332
     52 H25         4.3076   -6.7085    2.3041 H         1 <0>         0.1377
     53 H26         2.3674   -6.1249    6.0630 H         1 <0>         0.1378
     54 H27         0.8647   -4.4684    5.0398 H         1 <0>         0.1370
@<TRIPOS>BOND
     1    1    2 1
     2    1   29 1
     3    1   30 1
     4    1   31 1
     5    2   10 1
     6    2   14 1
     7    2    3 1
     8    3    4 1
     9    3   32 1
    10    3   33 1
    11    4    8 1
    12    4    5 1
    13    5    6 2
    14    5   34 1
    15    6    7 1
    16    7    8 2
    17    7   22 1
    18    8    9 1
    19    9   10 2
    20    9   35 1
    21   10   11 1
    22   11   12 1
    23   11   36 1
    24   11   37 1
    25   12   13 1
    26   12   38 1
    27   12   39 1
    28   13   14 1
    29   13   40 1
    30   13   41 1
    31   14   15 1
    32   14   16 1
    33   16   17 1
    34   16   18 1
    35   16   21 1
    36   17   42 1
    37   17   43 1
    38   17   44 1
    39   18   19 1
    40   18   45 1
    41   18   46 1
    42   19   20 2
    43   19   47 1
    44   20   48 1
    45   20   49 1
    46   21   50 1
    47   22   27 ar
    48   22   23 ar
    49   23   24 ar
    50   23   51 1
    51   24   25 ar
    52   24   52 1
    53   25   26 ar
    54   25   28 1
    55   26   27 ar
    56   26   53 1
    57   27   54 1
@<TRIPOS>MOLECULE
CHEMBL310570
   54    58     0     0     0
SMALL
USER_CHARGES

@<TRIPOS>ATOM
      1 C1          1.1998    2.0450   -0.7776 C.3       1 <0>        -0.1768
      2 C2          0.6663    0.7335   -0.1977 C.3       1 <0>        -0.0105
      3 C3         -0.8264    0.9228    0.1175 C.3       1 <0>        -0.1178
      4 C4         -1.2528    0.7408    1.5562 C.2       1 <0>        -0.2014
      5 C5         -2.4866    0.8638    2.1895 C.2       1 <0>         0.0678
      6 N1         -2.3296    0.6052    3.4639 N.2       1 <0>        -0.2804
      7 N2         -0.9828    0.3046    3.7003 N.pl3     1 <0>        -0.3224
      8 C6         -0.3190    0.3856    2.5042 C.2       1 <0>         0.1099
      9 C7          1.0888    0.1576    2.1588 C.2       1 <0>        -0.1246
     10 C8          1.5717    0.3206    0.9427 C.2       1 <0>        -0.0491
     11 C9          3.0267    0.0471    0.6433 C.3       1 <0>        -0.0838
     12 C10         3.0985   -0.9754   -0.4973 C.3       1 <0>        -0.1163
     13 C11         2.2690   -0.4767   -1.6815 C.3       1 <0>        -0.1155
     14 C12         0.8003   -0.3443   -1.2742 C.3       1 <0>        -0.0877
     15 H1          0.4448   -1.2968   -0.8811 H         1 <0>         0.0794
     16 C13        -0.0344    0.0475   -2.4951 C.3       1 <0>         0.1935
     17 C14        -0.0565   -1.1133   -3.4916 C.3       1 <0>        -0.1452
     18 C15        -1.4424    0.3634   -2.0606 C.2       1 <0>        -0.1103
     19 C16        -1.9284    1.6549   -2.1415 C.2       1 <0>        -0.1678
     20 C17        -3.1993    1.9052   -1.7424 C.2       1 <0>        -0.1600
     21 S1         -3.7516    0.2862   -1.2316 S.3       1 <0>         0.0609
     22 C18        -2.2530   -0.6156   -1.5897 C.2       1 <0>        -0.1914
     23 O1          0.5417    1.1980   -3.1167 O.3       1 <0>        -0.5500
     24 C19        -0.4149   -0.0215    4.9391 C.ar      1 <0>         0.1506
     25 C20         0.6239   -0.9404    5.0073 C.ar      1 <0>        -0.1059
     26 C21         1.1826   -1.2601    6.2291 C.ar      1 <0>        -0.1301
     27 C22         0.7075   -0.6648    7.3858 C.ar      1 <0>         0.0957
     28 C23        -0.3288    0.2516    7.3199 C.ar      1 <0>        -0.1316
     29 C24        -0.8863    0.5782    6.0994 C.ar      1 <0>        -0.0845
     30 F1          1.2553   -0.9789    8.5801 F         1 <0>        -0.1338
     31 H2          1.6731    1.8508   -1.7400 H         1 <0>         0.0993
     32 H3          0.3749    2.7445   -0.9129 H         1 <0>         0.0545
     33 H4          1.9313    2.4740   -0.0928 H         1 <0>         0.0545
     34 H5         -1.1099    1.9287   -0.1921 H         1 <0>         0.0760
     35 H6         -1.3904    0.2165   -0.4918 H         1 <0>         0.1393
     36 H7         -3.4175    1.1284    1.7102 H         1 <0>         0.1850
     37 H8          1.7679   -0.1384    2.9447 H         1 <0>         0.1159
     38 H9          3.5196    0.9709    0.3403 H         1 <0>         0.0824
     39 H10         3.5148   -0.3567    1.5303 H         1 <0>         0.0732
     40 H11         4.1358   -1.1014   -0.8076 H         1 <0>         0.0704
     41 H12         2.7033   -1.9314   -0.1537 H         1 <0>         0.0632
     42 H13         2.6444    0.4950   -2.0022 H         1 <0>         0.0801
     43 H14         2.3532   -1.1850   -2.5057 H         1 <0>         0.0683
     44 H15        -0.3951   -2.0185   -2.9875 H         1 <0>         0.0696
     45 H16        -0.7369   -0.8769   -4.3097 H         1 <0>         0.0649
     46 H17         0.9466   -1.2714   -3.8875 H         1 <0>         0.0721
     47 H18        -1.3046    2.4527   -2.5168 H         1 <0>         0.1377
     48 H19        -3.7380    2.8413   -1.7351 H         1 <0>         0.1901
     49 H20        -2.0458   -1.6679   -1.4631 H         1 <0>         0.1882
     50 H21         0.1495    2.0356   -2.8343 H         1 <0>         0.3758
     51 H22         0.9944   -1.4051    4.1056 H         1 <0>         0.1417
     52 H23         1.9903   -1.9750    6.2827 H         1 <0>         0.1466
     53 H24        -0.6981    0.7144    8.2231 H         1 <0>         0.1464
     54 H25        -1.6911    1.2965    6.0479 H         1 <0>         0.1439
@<TRIPOS>BOND
     1    1    2 1
     2    1   31 1
     3    1   32 1
     4    1   33 1
     5    2   10 1
     6    2   14 1
     7    2    3 1
     8    3    4 1
     9    3   34 1
    10    3   35 1
    11    4    8 2
    12    4    5 1
    13    5    6 2
    14    5   36 1
    15    6    7 1
    16    7    8 1
    17    7   24 1
    18    8    9 1
    19    9   10 2
    20    9   37 1
    21   10   11 1
    22   11   12 1
    23   11   38 1
    24   11   39 1
    25   12   13 1
    26   12   40 1
    27   12   41 1
    28   13   14 1
    29   13   42 1
    30   13   43 1
    31   14   15 1
    32   14   16 1
    33   16   17 1
    34   16   18 1
    35   16   23 1
    36   17   44 1
    37   17   45 1
    38   17   46 1
    39   18   22 2
    40   18   19 1
    41   19   20 2
    42   19   47 1
    43   20   21 1
    44   20   48 1
    45   21   22 1
    46   22   49 1
    47   23   50 1
    48   24   29 ar
    49   24   25 ar
    50   25   26 ar
    51   25   51 1
    52   26   27 ar
    53   26   52 1
    54   27   28 ar
    55   27   30 1
    56   28   29 ar
    57   28   53 1
    58   29   54 1
@<TRIPOS>MOLECULE
CHEMBL403178
   64    69     0     0     0
SMALL
USER_CHARGES

@<TRIPOS>ATOM
      1 C1          4.6407   -0.2864   -3.3842 C.ar      1 <0>        -0.1250
      2 C2          3.3248    0.0961   -3.1991 C.ar      1 <0>        -0.1009
      3 C3          2.7449   -0.0016   -1.9495 C.ar      1 <0>        -0.1271
      4 C4          3.4851   -0.4849   -0.8779 C.ar      1 <0>         0.1415
      5 C5          4.8067   -0.8683   -1.0674 C.ar      1 <0>        -0.1488
      6 C6          5.3804   -0.7679   -2.3196 C.ar      1 <0>        -0.0967
      7 N1          2.9018   -0.5846    0.3873 N.pl3     1 <0>        -1.0678
      8 S1          3.0856   -1.9692    1.2769 S.o2      1 <0>         2.7813
      9 O1          4.4621   -2.3156    1.2094 O.2       1 <0>        -0.9618
     10 O2          2.4145   -1.7515    2.5104 O.2       1 <0>        -0.9667
     11 N2          2.2566   -3.1690    0.4924 N.pl3     1 <0>        -0.9992
     12 C7          0.8062   -3.2919    0.6698 C.3       1 <0>         0.1146
     13 C8          0.3995   -4.7576    0.4719 C.3       1 <0>        -0.0908
     14 C9          0.8163   -5.1761   -0.9219 C.2       1 <0>        -0.0649
     15 C10         0.0571   -6.0413   -1.5936 C.2       1 <0>        -0.1052
     16 C11         0.5199   -6.4572   -2.9274 C.2       1 <0>         0.1282
     17 C12         1.8293   -6.2150   -3.3300 C.2       1 <0>        -0.2239
     18 C13         1.9727   -6.7084   -4.6115 C.2       1 <0>         0.0668
     19 N3          0.8293   -7.2393   -4.9853 N.2       1 <0>        -0.2847
     20 N4         -0.0983   -7.1043   -3.9379 N.pl3     1 <0>        -0.2958
     21 C14        -1.4238   -7.5586   -3.9421 C.ar      1 <0>         0.1476
     22 C15        -2.0005   -8.0313   -2.7707 C.ar      1 <0>        -0.1044
     23 C16        -3.3070   -8.4786   -2.7769 C.ar      1 <0>        -0.1326
     24 C17        -4.0420   -8.4559   -3.9504 C.ar      1 <0>         0.0993
     25 C18        -3.4688   -7.9848   -5.1198 C.ar      1 <0>        -0.1316
     26 C19        -2.1644   -7.5313   -5.1164 C.ar      1 <0>        -0.0746
     27 F1         -5.3199   -8.8943   -3.9546 F         1 <0>        -0.1337
     28 C20         2.8142   -5.5310   -2.4188 C.3       1 <0>        -0.0274
     29 C21         2.0534   -4.5562   -1.5170 C.3       1 <0>        -0.0204
     30 C22         2.9738   -4.1013   -0.3820 C.3       1 <0>         0.1333
     31 C23         1.6564   -3.3232   -2.3312 C.3       1 <0>        -0.0651
     32 C24         0.6084   -3.7062   -3.3442 C.ar      1 <0>        -0.0843
     33 C25         0.9882   -4.1356   -4.6022 C.ar      1 <0>        -0.0626
     34 C26         0.0281   -4.4875   -5.5318 C.ar      1 <0>        -0.1504
     35 C27        -1.3146   -4.4099   -5.2029 C.ar      1 <0>         0.0984
     36 C28        -1.6938   -3.9797   -3.9426 C.ar      1 <0>        -0.1588
     37 C29        -0.7318   -3.6333   -3.0129 C.ar      1 <0>        -0.0824
     38 F2         -2.2541   -4.7533   -6.1110 F         1 <0>        -0.1428
     39 H1          5.0904   -0.2132   -4.3634 H         1 <0>         0.1247
     40 H2          2.7500    0.4721   -4.0325 H         1 <0>         0.1256
     41 H3          1.7172    0.2976   -1.8055 H         1 <0>         0.1250
     42 H4          5.3850   -1.2441   -0.2363 H         1 <0>         0.1539
     43 H5          6.4079   -1.0658   -2.4676 H         1 <0>         0.1292
     44 H6          2.3891    0.1571    0.7449 H         1 <0>         0.4247
     45 H7          0.5334   -2.9704    1.6749 H         1 <0>         0.0949
     46 H8          0.2951   -2.6694   -0.0646 H         1 <0>         0.0692
     47 H9          0.9028   -5.3823    1.2098 H         1 <0>         0.0935
     48 H10        -0.6806   -4.8578    0.5789 H         1 <0>         0.0923
     49 H11        -0.8625   -6.4230   -1.1751 H         1 <0>         0.1308
     50 H12         2.8727   -6.6653   -5.2069 H         1 <0>         0.1849
     51 H13        -1.4275   -8.0495   -1.8554 H         1 <0>         0.1400
     52 H14        -3.7557   -8.8467   -1.8661 H         1 <0>         0.1460
     53 H15        -4.0435   -7.9682   -6.0340 H         1 <0>         0.1452
     54 H16        -1.7191   -7.1598   -6.0275 H         1 <0>         0.1428
     55 H17         3.3229   -6.2751   -1.8058 H         1 <0>         0.0783
     56 H18         3.5445   -4.9837   -3.0147 H         1 <0>         0.0847
     57 H19         3.8497   -3.6057   -0.8006 H         1 <0>         0.0914
     58 H20         3.2897   -4.9703    0.1950 H         1 <0>         0.0768
     59 H21         1.2549   -2.5608   -1.6636 H         1 <0>         0.0799
     60 H22         2.5330   -2.9301   -2.8461 H         1 <0>         0.0823
     61 H23         2.0355   -4.1958   -4.8587 H         1 <0>         0.1275
     62 H24         0.3250   -4.8227   -6.5146 H         1 <0>         0.1276
     63 H25        -2.7408   -3.9184   -3.6850 H         1 <0>         0.1258
     64 H26        -1.0271   -3.3019   -2.0283 H         1 <0>         0.1225
@<TRIPOS>BOND
     1    1    6 ar
     2    1    2 ar
     3    1   39 1
     4    2    3 ar
     5    2   40 1
     6    3    4 ar
     7    3   41 1
     8    4    5 ar
     9    4    7 1
    10    5    6 ar
    11    5   42 1
    12    6   43 1
    13    7    8 1
    14    7   44 1
    15    8    9 2
    16    8   10 2
    17    8   11 1
    18   11   30 1
    19   11   12 1
    20   12   13 1
    21   12   45 1
    22   12   46 1
    23   13   14 1
    24   13   47 1
    25   13   48 1
    26   14   29 1
    27   14   15 2
    28   15   16 1
    29   15   49 1
    30   16   20 1
    31   16   17 2
    32   17   18 1
    33   17   28 1
    34   18   19 2
    35   18   50 1
    36   19   20 1
    37   20   21 1
    38   21   26 ar
    39   21   22 ar
    40   22   23 ar
    41   22   51 1
    42   23   24 ar
    43   23   52 1
    44   24   25 ar
    45   24   27 1
    46   25   26 ar
    47   25   53 1
    48   26   54 1
    49   28   29 1
    50   28   55 1
    51   28   56 1
    52   29   30 1
    53   29   31 1
    54   30   57 1
    55   30   58 1
    56   31   32 1
    57   31   59 1
    58   31   60 1
    59   32   37 ar
    60   32   33 ar
    61   33   34 ar
    62   33   61 1
    63   34   35 ar
    64   34   62 1
    65   35   36 ar
    66   35   38 1
    67   36   37 ar
    68   36   63 1
    69   37   64 1
@<TRIPOS>MOLECULE
CHEMBL403178__1
   64    69     0     0     0
SMALL
USER_CHARGES

@<TRIPOS>ATOM
      1 C1          4.5467   -0.9446   -4.0802 C.ar      1 <0>        -0.1266
      2 C2          3.3911   -0.2965   -3.6840 C.ar      1 <0>        -0.1016
      3 C3          3.0791   -0.1961   -2.3425 C.ar      1 <0>        -0.1300
      4 C4          3.9276   -0.7471   -1.3905 C.ar      1 <0>         0.1436
      5 C5          5.0876   -1.3975   -1.7919 C.ar      1 <0>        -0.1528
      6 C6          5.3936   -1.4942   -3.1352 C.ar      1 <0>        -0.0949
      7 N1          3.6153   -0.6470   -0.0328 N.pl3     1 <0>        -1.0684
      8 S1          3.7405   -1.9770    0.9458 S.o2      1 <0>         2.7817
      9 O1          5.0499   -2.4966    0.7593 O.2       1 <0>        -0.9632
     10 O2          3.2490   -1.5901    2.2217 O.2       1 <0>        -0.9659
     11 N2          2.6913   -3.1164    0.3600 N.pl3     1 <0>        -0.9988
     12 C7          1.2797   -3.0826    0.7559 C.3       1 <0>         0.1250
     13 C8          0.4309   -3.7020   -0.3617 C.3       1 <0>        -0.0929
     14 C9          0.9036   -5.1239   -0.5765 C.2       1 <0>        -0.0655
     15 C10         0.0155   -6.0586   -0.9140 C.2       1 <0>        -0.1047
     16 C11         0.5217   -7.4190   -1.1577 C.2       1 <0>         0.1261
     17 C12         1.8816   -7.6462   -1.3419 C.2       1 <0>        -0.2228
     18 C13         2.0572   -9.0003   -1.5466 C.2       1 <0>         0.0687
     19 N3          0.8802   -9.5850   -1.5071 N.2       1 <0>        -0.2841
     20 N4         -0.1044   -8.6091   -1.2753 N.pl3     1 <0>        -0.2963
     21 C14        -1.4849   -8.8311   -1.1834 C.ar      1 <0>         0.1475
     22 C15        -2.2540   -8.0749   -0.3088 C.ar      1 <0>        -0.1030
     23 C16        -3.6143   -8.2953   -0.2196 C.ar      1 <0>        -0.1338
     24 C17        -4.2116   -9.2697   -1.0018 C.ar      1 <0>         0.1000
     25 C18        -3.4463  -10.0249   -1.8747 C.ar      1 <0>        -0.1337
     26 C19        -2.0865   -9.8037   -1.9709 C.ar      1 <0>        -0.0804
     27 F1         -5.5425   -9.4841   -0.9128 F         1 <0>        -0.1336
     28 C20         2.8756   -6.5153   -1.3067 C.3       1 <0>        -0.0271
     29 C21         2.3594   -5.4377   -0.3506 C.3       1 <0>        -0.0161
     30 C22         3.1749   -4.1522   -0.5572 C.3       1 <0>         0.1266
     31 C23         2.5542   -5.9097    1.0917 C.3       1 <0>        -0.0707
     32 C24         1.7271   -7.1464    1.3316 C.ar      1 <0>        -0.0849
     33 C25         0.4259   -7.0301    1.7838 C.ar      1 <0>        -0.0883
     34 C26        -0.3337   -8.1635    2.0037 C.ar      1 <0>        -0.1627
     35 C27         0.2090   -9.4159    1.7709 C.ar      1 <0>         0.1029
     36 C28         1.5123   -9.5311    1.3179 C.ar      1 <0>        -0.1464
     37 C29         2.2683   -8.3961    1.0937 C.ar      1 <0>        -0.0642
     38 F2         -0.5324  -10.5245    1.9859 F         1 <0>        -0.1420
     39 H1          4.7860   -1.0256   -5.1302 H         1 <0>         0.1255
     40 H2          2.7321    0.1320   -4.4246 H         1 <0>         0.1267
     41 H3          2.1767    0.3105   -2.0337 H         1 <0>         0.1262
     42 H4          5.7496   -1.8267   -1.0544 H         1 <0>         0.1530
     43 H5          6.2953   -1.9997   -3.4479 H         1 <0>         0.1300
     44 H6          3.3252    0.2016    0.3368 H         1 <0>         0.4246
     45 H7          1.1450   -3.6531    1.6748 H         1 <0>         0.0768
     46 H8          0.9713   -2.0498    0.9181 H         1 <0>         0.0817
     47 H9         -0.6190   -3.7032   -0.0689 H         1 <0>         0.0916
     48 H10         0.5570   -3.1292   -1.2804 H         1 <0>         0.0918
     49 H11        -1.0354   -5.8268   -1.0049 H         1 <0>         0.1301
     50 H12         3.0025   -9.4958   -1.7119 H         1 <0>         0.1844
     51 H13        -1.7885   -7.3152    0.3016 H         1 <0>         0.1443
     52 H14        -4.2128   -7.7077    0.4607 H         1 <0>         0.1456
     53 H15        -3.9139  -10.7846   -2.4835 H         1 <0>         0.1458
     54 H16        -1.4908  -10.3898   -2.6550 H         1 <0>         0.1437
     55 H17         3.8385   -6.8856   -0.9547 H         1 <0>         0.0853
     56 H18         2.9864   -6.0947   -2.3062 H         1 <0>         0.0778
     57 H19         3.0624   -3.8080   -1.5853 H         1 <0>         0.0733
     58 H20         4.2268   -4.3538   -0.3551 H         1 <0>         0.0998
     59 H21         3.6066   -6.1381    1.2603 H         1 <0>         0.0840
     60 H22         2.2388   -5.1231    1.7772 H         1 <0>         0.0817
     61 H23         0.0029   -6.0532    1.9657 H         1 <0>         0.1250
     62 H24        -1.3500   -8.0724    2.3574 H         1 <0>         0.1274
     63 H25         1.9368  -10.5074    1.1363 H         1 <0>         0.1286
     64 H26         3.2834   -8.4856    0.7362 H         1 <0>         0.1286
@<TRIPOS>BOND
     1    1    6 ar
     2    1    2 ar
     3    1   39 1
     4    2    3 ar
     5    2   40 1
     6    3    4 ar
     7    3   41 1
     8    4    5 ar
     9    4    7 1
    10    5    6 ar
    11    5   42 1
    12    6   43 1
    13    7    8 1
    14    7   44 1
    15    8    9 2
    16    8   10 2
    17    8   11 1
    18   11   30 1
    19   11   12 1
    20   12   13 1
    21   12   45 1
    22   12   46 1
    23   13   14 1
    24   13   47 1
    25   13   48 1
    26   14   29 1
    27   14   15 2
    28   15   16 1
    29   15   49 1
    30   16   20 1
    31   16   17 2
    32   17   18 1
    33   17   28 1
    34   18   19 2
    35   18   50 1
    36   19   20 1
    37   20   21 1
    38   21   26 ar
    39   21   22 ar
    40   22   23 ar
    41   22   51 1
    42   23   24 ar
    43   23   52 1
    44   24   25 ar
    45   24   27 1
    46   25   26 ar
    47   25   53 1
    48   26   54 1
    49   28   29 1
    50   28   55 1
    51   28   56 1
    52   29   30 1
    53   29   31 1
    54   30   57 1
    55   30   58 1
    56   31   32 1
    57   31   59 1
    58   31   60 1
    59   32   37 ar
    60   32   33 ar
    61   33   34 ar
    62   33   61 1
    63   34   35 ar
    64   34   62 1
    65   35   36 ar
    66   35   38 1
    67   36   37 ar
    68   36   63 1
    69   37   64 1
@<TRIPOS>MOLECULE
CHEMBL572329
   58    62     0     0     0
SMALL
USER_CHARGES

@<TRIPOS>ATOM
      1 C1          3.9359   -1.6351   -1.5964 C.3       1 <0>        -0.0811
      2 C2          2.8154   -2.2618   -0.8071 C.2       1 <0>        -0.1222
      3 C3          2.1868   -3.4455   -1.0095 C.2       1 <0>        -0.1767
      4 C4          1.1739   -3.8225   -0.1478 C.2       1 <0>        -0.1566
      5 C5          0.8391   -2.9973    0.8741 C.2       1 <0>        -0.2035
      6 S1          1.9768   -1.6413    0.6417 S.3       1 <0>         0.0865
      7 C6         -0.2159   -3.1798    1.9346 C.3       1 <0>         0.2188
      8 C7         -1.0355   -1.8945    2.0652 C.3       1 <0>        -0.1489
      9 C8          0.4554   -3.4947    3.2729 C.3       1 <0>        -0.0963
     10 H1          1.4419   -3.0321    3.3027 H         1 <0>         0.0891
     11 C9         -0.4009   -2.9448    4.4155 C.3       1 <0>        -0.1290
     12 C10         0.3100   -3.1536    5.7533 C.3       1 <0>        -0.1201
     13 C11         0.5021   -4.6550    6.0018 C.3       1 <0>        -0.0896
     14 C12         1.1949   -5.2470    4.7989 C.2       1 <0>        -0.0188
     15 C13         2.3052   -5.9557    4.9237 C.2       1 <0>        -0.1419
     16 C14         3.0138   -6.5195    3.7738 C.2       1 <0>         0.1152
     17 C15         4.1539   -7.3054    3.6856 C.2       1 <0>         0.0857
     18 N1          4.3822   -7.5355    2.3794 N.pl3     1 <0>        -0.4640
     19 C16         3.4614   -6.9500    1.6647 C.cat     1 <0>         0.2900
     20 N2          2.5921   -6.3186    2.4819 N.pl3     1 <0>        -0.4022
     21 C17         1.3785   -5.5355    2.2155 C.3       1 <0>         0.0648
     22 C18         0.5974   -5.0091    3.4286 C.3       1 <0>        -0.0369
     23 C19        -0.8072   -5.6156    3.4116 C.3       1 <0>        -0.1465
     24 C20         4.9694   -7.7989    4.8191 C.ar      1 <0>        -0.0747
     25 C21         5.3066   -6.9396    5.8649 C.ar      1 <0>        -0.0516
     26 C22         6.0664   -7.4041    6.9184 C.ar      1 <0>        -0.1471
     27 C23         6.4945   -8.7219    6.9389 C.ar      1 <0>         0.1368
     28 C24         6.1621   -9.5794    5.9024 C.ar      1 <0>        -0.1472
     29 C25         5.3979   -9.1261    4.8472 C.ar      1 <0>        -0.0638
     30 F1          7.2388   -9.1719    7.9726 F         1 <0>        -0.1228
     31 O1         -1.0777   -4.2592    1.5684 O.3       1 <0>        -0.5314
     32 H2          4.8933   -1.9569   -1.1864 H         1 <0>         0.0836
     33 H3          3.8642   -1.9459   -2.6387 H         1 <0>         0.0882
     34 H4          3.8607   -0.5495   -1.5349 H         1 <0>         0.0808
     35 H5          2.4729   -4.0844   -1.8319 H         1 <0>         0.1389
     36 H6          0.6567   -4.7603   -0.2869 H         1 <0>         0.1300
     37 H7         -1.5442   -1.6907    1.1229 H         1 <0>         0.0743
     38 H8         -1.7737   -2.0133    2.8583 H         1 <0>         0.0859
     39 H9         -0.3726   -1.0638    2.3073 H         1 <0>         0.0766
     40 H10        -0.5712   -1.8796    4.2592 H         1 <0>         0.0880
     41 H11        -1.3594   -3.4636    4.4308 H         1 <0>         0.0866
     42 H12         1.2826   -2.6621    5.7284 H         1 <0>         0.0696
     43 H13        -0.2922   -2.7268    6.5553 H         1 <0>         0.0846
     44 H14         1.1155   -4.8051    6.8903 H         1 <0>         0.0889
     45 H15        -0.4682   -5.1321    6.1392 H         1 <0>         0.0965
     46 H16         2.7045   -6.1244    5.9129 H         1 <0>         0.1541
     47 H17         3.4035   -6.9676    0.5864 H         1 <0>         0.2610
     48 H18         1.6607   -4.6795    1.6026 H         1 <0>         0.1389
     49 H19         0.7031   -6.1555    1.6261 H         1 <0>         0.1129
     50 H20        -1.0479   -5.9464    2.4013 H         1 <0>         0.0781
     51 H21        -0.8435   -6.4671    4.0911 H         1 <0>         0.0560
     52 H22        -1.5308   -4.8653    3.7304 H         1 <0>         0.0962
     53 H23         4.9738   -5.9123    5.8496 H         1 <0>         0.1429
     54 H24         6.3284   -6.7396    7.7284 H         1 <0>         0.1520
     55 H25         6.4981  -10.6056    5.9230 H         1 <0>         0.1508
     56 H26         5.1353   -9.7965    4.0422 H         1 <0>         0.1372
     57 H27        -0.6160   -5.0208    1.1918 H         1 <0>         0.3679
     58 H28         5.1187   -8.0570    2.0238 H         1 <0>         0.4650
@<TRIPOS>BOND
     1    1    2 1
     2    1   32 1
     3    1   33 1
     4    1   34 1
     5    2    6 1
     6    2    3 2
     7    3    4 1
     8    3   35 1
     9    4    5 2
    10    4   36 1
    11    5    6 1
    12    5    7 1
    13    7    8 1
    14    7    9 1
    15    7   31 1
    16    8   37 1
    17    8   38 1
    18    8   39 1
    19    9   10 1
    20    9   22 1
    21    9   11 1
    22   11   12 1
    23   11   40 1
    24   11   41 1
    25   12   13 1
    26   12   42 1
    27   12   43 1
    28   13   14 1
    29   13   44 1
    30   13   45 1
    31   14   22 1
    32   14   15 2
    33   15   16 1
    34   15   46 1
    35   16   20 1
    36   16   17 2
    37   17   18 1
    38   17   24 1
    39   18   19 2
    40   18   58 1
    41   19   20 1
    42   19   47 1
    43   20   21 1
    44   21   22 1
    45   21   48 1
    46   21   49 1
    47   22   23 1
    48   23   50 1
    49   23   51 1
    50   23   52 1
    51   24   29 ar
    52   24   25 ar
    53   25   26 ar
    54   25   53 1
    55   26   27 ar
    56   26   54 1
    57   27   28 ar
    58   27   30 1
    59   28   29 ar
    60   28   55 1
    61   29   56 1
    62   31   57 1
@<TRIPOS>MOLECULE
CHEMBL572329__1
   57    61     0     0     0
SMALL
USER_CHARGES

@<TRIPOS>ATOM
      1 C1          3.9359   -1.6351   -1.5964 C.3       1 <0>        -0.0756
      2 C2          2.8154   -2.2618   -0.8071 C.2       1 <0>        -0.1317
      3 C3          2.1868   -3.4455   -1.0095 C.2       1 <0>        -0.1663
      4 C4          1.1739   -3.8225   -0.1478 C.2       1 <0>        -0.1507
      5 C5          0.8391   -2.9973    0.8741 C.2       1 <0>        -0.1898
      6 S1          1.9768   -1.6413    0.6417 S.3       1 <0>         0.0680
      7 C6         -0.2159   -3.1798    1.9346 C.3       1 <0>         0.2197
      8 C7         -1.0355   -1.8945    2.0652 C.3       1 <0>        -0.1445
      9 C8          0.4554   -3.4947    3.2729 C.3       1 <0>        -0.0942
     10 H1          1.4419   -3.0321    3.3027 H         1 <0>         0.0834
     11 C9         -0.4009   -2.9448    4.4155 C.3       1 <0>        -0.1234
     12 C10         0.3100   -3.1536    5.7533 C.3       1 <0>        -0.1177
     13 C11         0.5021   -4.6550    6.0018 C.3       1 <0>        -0.0771
     14 C12         1.1949   -5.2470    4.7989 C.2       1 <0>        -0.0929
     15 C13         2.3052   -5.9557    4.9237 C.2       1 <0>        -0.0908
     16 C14         3.0138   -6.5195    3.7738 C.2       1 <0>         0.0241
     17 C15         4.1539   -7.3054    3.6856 C.2       1 <0>         0.0558
     18 N1          4.3822   -7.5355    2.3794 N.2       1 <0>        -0.4711
     19 C16         3.4614   -6.9500    1.6647 C.2       1 <0>         0.1999
     20 N2          2.5921   -6.3186    2.4819 N.pl3     1 <0>        -0.4453
     21 C17         1.3785   -5.5355    2.2155 C.3       1 <0>         0.0790
     22 C18         0.5974   -5.0091    3.4286 C.3       1 <0>        -0.0221
     23 C19        -0.8072   -5.6156    3.4116 C.3       1 <0>        -0.1397
     24 C20         4.9694   -7.7989    4.8191 C.ar      1 <0>        -0.0070
     25 C21         5.1326   -7.0114    5.9588 C.ar      1 <0>        -0.0827
     26 C22         5.8932   -7.4756    7.0119 C.ar      1 <0>        -0.1509
     27 C23         6.4945   -8.7218    6.9389 C.ar      1 <0>         0.0967
     28 C24         6.3353   -9.5079    5.8089 C.ar      1 <0>        -0.1514
     29 C25         5.5720   -9.0552    4.7528 C.ar      1 <0>        -0.0652
     30 F1          7.2387   -9.1718    7.9727 F         1 <0>        -0.1397
     31 O1         -1.0777   -4.2592    1.5684 O.3       1 <0>        -0.5373
     32 H2          4.8933   -1.9569   -1.1864 H         1 <0>         0.0822
     33 H3          3.8642   -1.9459   -2.6387 H         1 <0>         0.0845
     34 H4          3.8607   -0.5495   -1.5349 H         1 <0>         0.0761
     35 H5          2.4729   -4.0844   -1.8319 H         1 <0>         0.1365
     36 H6          0.6567   -4.7603   -0.2869 H         1 <0>         0.1292
     37 H7         -1.5442   -1.6907    1.1229 H         1 <0>         0.0692
     38 H8         -1.7737   -2.0133    2.8583 H         1 <0>         0.0821
     39 H9         -0.3726   -1.0638    2.3073 H         1 <0>         0.0732
     40 H10        -0.5712   -1.8796    4.2592 H         1 <0>         0.0777
     41 H11        -1.3594   -3.4636    4.4308 H         1 <0>         0.0810
     42 H12         1.2826   -2.6621    5.7284 H         1 <0>         0.0652
     43 H13        -0.2922   -2.7268    6.5553 H         1 <0>         0.0732
     44 H14         1.1155   -4.8051    6.8903 H         1 <0>         0.0772
     45 H15        -0.4682   -5.1321    6.1392 H         1 <0>         0.0812
     46 H16         2.7045   -6.1244    5.9129 H         1 <0>         0.1326
     47 H17         3.4035   -6.9676    0.5864 H         1 <0>         0.2064
     48 H18         1.6607   -4.6795    1.6026 H         1 <0>         0.1115
     49 H19         0.7031   -6.1555    1.6261 H         1 <0>         0.0809
     50 H20        -1.0479   -5.9464    2.4013 H         1 <0>         0.0693
     51 H21        -0.8435   -6.4671    4.0911 H         1 <0>         0.0486
     52 H22        -1.5308   -4.8653    3.7304 H         1 <0>         0.0840
     53 H23         4.6647   -6.0397    6.0165 H         1 <0>         0.1331
     54 H24         6.0205   -6.8665    7.8946 H         1 <0>         0.1376
     55 H25         6.8060  -10.4786    5.7568 H         1 <0>         0.1377
     56 H26         5.4446   -9.6706    3.8745 H         1 <0>         0.1370
     57 H27        -0.6160   -5.0208    1.1918 H         1 <0>         0.3731
@<TRIPOS>BOND
     1    1    2 1
     2    1   32 1
     3    1   33 1
     4    1   34 1
     5    2    6 1
     6    2    3 2
     7    3    4 1
     8    3   35 1
     9    4    5 2
    10    4   36 1
    11    5    6 1
    12    5    7 1
    13    7    8 1
    14    7    9 1
    15    7   31 1
    16    8   37 1
    17    8   38 1
    18    8   39 1
    19    9   10 1
    20    9   22 1
    21    9   11 1
    22   11   12 1
    23   11   40 1
    24   11   41 1
    25   12   13 1
    26   12   42 1
    27   12   43 1
    28   13   14 1
    29   13   44 1
    30   13   45 1
    31   14   22 1
    32   14   15 2
    33   15   16 1
    34   15   46 1
    35   16   20 1
    36   16   17 2
    37   17   18 1
    38   17   24 1
    39   18   19 2
    40   19   20 1
    41   19   47 1
    42   20   21 1
    43   21   22 1
    44   21   48 1
    45   21   49 1
    46   22   23 1
    47   23   50 1
    48   23   51 1
    49   23   52 1
    50   24   29 ar
    51   24   25 ar
    52   25   26 ar
    53   25   53 1
    54   26   27 ar
    55   26   54 1
    56   27   28 ar
    57   27   30 1
    58   28   29 ar
    59   28   55 1
    60   29   56 1
    61   31   57 1
@<TRIPOS>MOLECULE
CHEMBL232828
   71    76     0     0     0
SMALL
USER_CHARGES

@<TRIPOS>ATOM
      1 C1          0.1113    1.6111    0.2974 C.3       1 <0>        -0.1532
      2 C2          0.1783    0.0830    0.2624 C.3       1 <0>        -0.0361
      3 C3         -1.2257   -0.4962    0.2593 C.3       1 <0>        -0.0988
      4 C4         -1.9864    0.1513    1.4273 C.3       1 <0>        -0.0097
      5 H1         -2.9472   -0.3486    1.5504 H         1 <0>         0.0998
      6 C5         -1.1978    0.0370    2.7131 C.2       1 <0>        -0.0911
      7 C6         -1.8514   -0.2821    3.8295 C.2       1 <0>        -0.1162
      8 C7         -3.3419   -0.5155    3.8297 C.3       1 <0>        -0.0777
      9 C8         -3.6526   -1.7155    4.7294 C.3       1 <0>        -0.1660
     10 C9         -2.9777   -1.5506    6.0642 C.2       1 <0>         0.3859
     11 O1         -3.5430   -1.9334    7.0689 O.2       1 <0>        -0.4628
     12 C10        -1.7045   -0.9623    6.1709 C.2       1 <0>        -0.2224
     13 C11        -1.1268   -0.3819    5.0986 C.2       1 <0>        -0.0254
     14 C12         0.2702    0.1878    5.1484 C.3       1 <0>         0.0935
     15 O2          0.9175   -0.1495    3.9210 O.3       1 <0>        -0.3647
     16 C13         0.2914    0.2897    2.7265 C.3       1 <0>         0.1358
     17 H2          0.4718    1.3574    2.6023 H         1 <0>         0.0870
     18 C14         0.8916   -0.4446    1.5354 C.3       1 <0>        -0.0778
     19 H3          0.7637   -1.5226    1.6334 H         1 <0>         0.0893
     20 C15         2.3555   -0.0838    1.2474 C.3       1 <0>        -0.1087
     21 C16         2.5139   -0.4327   -0.2563 C.3       1 <0>        -0.1457
     22 C17         1.0947   -0.3716   -0.8712 C.3       1 <0>         0.2566
     23 C18         0.6897   -1.7031   -1.3507 C.1       1 <0>        -0.1497
     24 C19         0.3666   -2.7650   -1.7331 C.1       1 <0>        -0.1307
     25 C20        -0.0274   -4.0604   -2.1995 C.ar      1 <0>         0.0623
     26 C21        -1.1188   -4.7280   -1.6318 C.ar      1 <0>        -0.1522
     27 C22        -1.4635   -5.9743   -2.1117 C.ar      1 <0>         0.1051
     28 N1         -0.7802   -6.5363   -3.0906 N.ar      1 <0>        -0.4808
     29 C23         0.2546   -5.9418   -3.6534 C.ar      1 <0>         0.1048
     30 C24         0.6645   -4.6915   -3.2397 C.ar      1 <0>        -0.1529
     31 O3          1.0606    0.5725   -1.9434 O.3       1 <0>        -0.5338
     32 C25        -2.2215    1.6076    1.1190 C.ar      1 <0>        -0.1178
     33 C26        -2.6191    1.9888   -0.1494 C.ar      1 <0>        -0.0631
     34 C27        -2.8354    3.3225   -0.4354 C.ar      1 <0>        -0.1918
     35 C28        -2.6532    4.2815    0.5529 C.ar      1 <0>         0.2149
     36 C29        -2.2538    3.8951    1.8260 C.ar      1 <0>        -0.1955
     37 C30        -2.0446    2.5592    2.1067 C.ar      1 <0>        -0.0759
     38 N2         -2.8706    5.6313    0.2670 N.pl3     1 <0>        -0.6385
     39 C31        -3.4028    6.0268   -1.0393 C.3       1 <0>         0.0924
     40 C32        -2.5666    6.6514    1.2735 C.3       1 <0>         0.0885
     41 H4          1.1112    2.0220    0.1572 H         1 <0>         0.0514
     42 H5         -0.5418    1.9645   -0.5005 H         1 <0>         0.0767
     43 H6         -0.2831    1.9356    1.2603 H         1 <0>         0.0829
     44 H7         -1.7219   -0.2618   -0.6824 H         1 <0>         0.0799
     45 H8         -1.1819   -1.5764    0.3981 H         1 <0>         0.0700
     46 H9         -3.8503    0.3695    4.2123 H         1 <0>         0.0852
     47 H10        -3.6793   -0.7230    2.8142 H         1 <0>         0.0937
     48 H11        -4.7303   -1.7878    4.8759 H         1 <0>         0.0975
     49 H12        -3.2928   -2.6273    4.2527 H         1 <0>         0.1006
     50 H13        -1.1858   -0.9750    7.1181 H         1 <0>         0.1398
     51 H14         0.2242    1.2714    5.2567 H         1 <0>         0.0766
     52 H15         0.8168   -0.2455    5.9860 H         1 <0>         0.1186
     53 H16         2.5309    0.9786    1.4169 H         1 <0>         0.0769
     54 H17         3.0281   -0.6882    1.8560 H         1 <0>         0.0779
     55 H18         3.1639    0.2948   -0.7426 H         1 <0>         0.0859
     56 H19         2.9263   -1.4357   -0.3662 H         1 <0>         0.0750
     57 H20        -1.6822   -4.2744   -0.8298 H         1 <0>         0.1389
     58 H21        -2.3040   -6.4975   -1.6802 H         1 <0>         0.1624
     59 H22         0.7850   -6.4391   -4.4520 H         1 <0>         0.1624
     60 H23         1.5096   -4.2089   -3.7080 H         1 <0>         0.1390
     61 H24         1.6240    0.3367   -2.6931 H         1 <0>         0.3801
     62 H25        -2.7602    1.2427   -0.9174 H         1 <0>         0.1218
     63 H26        -3.1455    3.6195   -1.4263 H         1 <0>         0.1220
     64 H27        -2.1108    4.6383    2.5966 H         1 <0>         0.1220
     65 H28        -1.7384    2.2577    3.0975 H         1 <0>         0.1171
     66 H29        -4.4917    6.0484   -0.9967 H         1 <0>         0.0481
     67 H30        -3.0296    7.0175   -1.2988 H         1 <0>         0.0660
     68 H31        -3.0829    5.3088   -1.7945 H         1 <0>         0.0695
     69 H32        -2.2695    6.1669    2.2037 H         1 <0>         0.0774
     70 H33        -1.7528    7.2827    0.9167 H         1 <0>         0.0526
     71 H34        -3.4512    7.2636    1.4492 H         1 <0>         0.0554
@<TRIPOS>BOND
     1    1    2 1
     2    1   41 1
     3    1   42 1
     4    1   43 1
     5    2   18 1
     6    2   22 1
     7    2    3 1
     8    3    4 1
     9    3   44 1
    10    3   45 1
    11    4    5 1
    12    4    6 1
    13    4   32 1
    14    6   16 1
    15    6    7 2
    16    7   13 1
    17    7    8 1
    18    8    9 1
    19    8   46 1
    20    8   47 1
    21    9   10 1
    22    9   48 1
    23    9   49 1
    24   10   11 2
    25   10   12 1
    26   12   13 2
    27   12   50 1
    28   13   14 1
    29   14   15 1
    30   14   51 1
    31   14   52 1
    32   15   16 1
    33   16   17 1
    34   16   18 1
    35   18   19 1
    36   18   20 1
    37   20   21 1
    38   20   53 1
    39   20   54 1
    40   21   22 1
    41   21   55 1
    42   21   56 1
    43   22   23 1
    44   22   31 1
    45   23   24 3
    46   24   25 1
    47   25   30 ar
    48   25   26 ar
    49   26   27 ar
    50   26   57 1
    51   27   28 ar
    52   27   58 1
    53   28   29 ar
    54   29   30 ar
    55   29   59 1
    56   30   60 1
    57   31   61 1
    58   32   37 ar
    59   32   33 ar
    60   33   34 ar
    61   33   62 1
    62   34   35 ar
    63   34   63 1
    64   35   36 ar
    65   35   38 1
    66   36   37 ar
    67   36   64 1
    68   37   65 1
    69   38   39 1
    70   38   40 1
    71   39   66 1
    72   39   67 1
    73   39   68 1
    74   40   69 1
    75   40   70 1
    76   40   71 1
@<TRIPOS>MOLECULE
CHEMBL302366
   72    77     0     0     0
SMALL
NO_CHARGES

@<TRIPOS>ATOM
      1 C1         -0.9041    1.6731   -0.1356 C.3       1 <0>        -0.1684
      2 C2         -1.0985    0.1556   -0.1213 C.3       1 <0>        -0.0459
      3 C3         -2.4175   -0.1870    0.5451 C.3       1 <0>        -0.1305
      4 C4         -2.4123    0.4756    1.9317 C.3       1 <0>         0.0905
      5 H1         -3.3353    0.2194    2.4518 H         1 <0>         0.0762
      6 C5         -1.2238    0.0157    2.7707 C.3       1 <0>         0.1584
      7 C6          0.1072    0.2358    2.0348 C.3       1 <0>        -0.0976
      8 C7          0.0261   -0.5108    0.7154 C.3       1 <0>        -0.0800
      9 C8          1.2371   -0.3533   -0.2102 C.3       1 <0>        -0.1145
     10 C9          0.6542   -0.6831   -1.6116 C.3       1 <0>         0.0624
     11 H2          1.1341   -0.1107   -2.4054 H         1 <0>         0.1076
     12 C10        -0.8758   -0.4066   -1.5200 C.3       1 <0>         0.0538
     13 O1         -1.4875   -1.7055   -1.6364 O.3       1 <0>        -0.3382
     14 C11        -0.5217   -2.4998   -2.3582 C.3       1 <0>         0.2405
     15 O2          0.7670   -2.1066   -1.8152 O.3       1 <0>        -0.3574
     16 C12        -0.7709   -3.9903   -2.1186 C.3       1 <0>        -0.1373
     17 C13        -0.5798   -2.1815   -3.8536 C.3       1 <0>        -0.1937
     18 C14        -1.3405    0.5492   -2.5883 C.2       1 <0>         0.3857
     19 O3         -0.5624    1.3321   -3.0782 O.2       1 <0>        -0.4131
     20 C15        -2.7764    0.5282   -3.0454 C.3       1 <0>        -0.1616
     21 S1         -3.0587    1.8859   -4.2149 S.3       1 <0>        -0.1348
     22 C16        -4.8089    1.7224   -4.6629 C.3       1 <0>        -0.1549
     23 C17        -5.2107    2.8105   -5.6911 C.3       1 <0>        -0.1308
     24 C18        -6.5974    3.2342   -5.1363 C.3       1 <0>         0.0522
     25 O4         -6.4177    3.1168   -3.7090 O.3       1 <0>        -0.3330
     26 C19        -5.6936    2.0072   -3.4642 C.2       1 <0>         0.4915
     27 O5         -5.7418    1.3460   -2.4541 O.2       1 <0>        -0.4417
     28 C20         1.2581   -0.3205    2.8753 C.3       1 <0>        -0.1419
     29 C21         1.3609    0.4590    4.1901 C.3       1 <0>         0.1265
     30 H3          1.6234    1.4965    3.9835 H         1 <0>         0.1077
     31 C22         0.0105    0.3995    4.8795 C.2       1 <0>        -0.0787
     32 C23        -0.0487    0.0049    6.1437 C.2       1 <0>        -0.1937
     33 C24        -1.3419   -0.0859    6.8391 C.2       1 <0>         0.4081
     34 O6         -1.3971   -0.4102    8.0107 O.2       1 <0>        -0.4473
     35 C25        -2.5680    0.2251    6.0851 C.2       1 <0>        -0.2065
     36 C26        -2.4847    0.6232    4.8254 C.2       1 <0>        -0.0690
     37 C27        -1.2009    0.7958    4.0883 C.3       1 <0>        -0.0230
     38 C28        -1.0721    2.2819    3.7481 C.3       1 <0>        -0.1388
     39 F1          2.3361   -0.1212    5.0084 F         1 <0>        -0.1963
     40 F2         -1.3559   -1.3495    3.0466 F         1 <0>        -0.1872
     41 O7         -2.3466    1.8940    1.7705 O.3       1 <0>        -0.5421
     42 H4         -0.0488    1.9239   -0.7631 H         1 <0>         0.0561
     43 H5         -1.7994    2.1504   -0.5341 H         1 <0>         0.0581
     44 H6         -0.7255    2.0262    0.8800 H         1 <0>         0.1132
     45 H7         -3.2451    0.2011   -0.0486 H         1 <0>         0.0796
     46 H8         -2.5101   -1.2680    0.6507 H         1 <0>         0.0925
     47 H9          0.2522    1.2997    1.8471 H         1 <0>         0.1191
     48 H10        -0.1996   -1.5633    0.8868 H         1 <0>         0.0968
     49 H11         1.6139    0.6691   -0.1807 H         1 <0>         0.0893
     50 H12         2.0210   -1.0617    0.0574 H         1 <0>         0.0916
     51 H13        -1.7721   -4.2510   -2.4616 H         1 <0>         0.0811
     52 H14        -0.0343   -4.5749   -2.6697 H         1 <0>         0.0822
     53 H15        -0.6837   -4.2067   -1.0539 H         1 <0>         0.0759
     54 H16        -0.2530   -1.1549   -4.0195 H         1 <0>         0.0608
     55 H17         0.0752   -2.8634   -4.3959 H         1 <0>         0.0857
     56 H18        -1.6028   -2.2993   -4.2107 H         1 <0>         0.0786
     57 H19        -2.9880   -0.4226   -3.5346 H         1 <0>         0.1224
     58 H20        -3.4336    0.6479   -2.1842 H         1 <0>         0.1275
     59 H21        -5.0098    0.7268   -5.0584 H         1 <0>         0.1327
     60 H22        -4.5091    3.6446   -5.6760 H         1 <0>         0.1033
     61 H23        -5.2991    2.3913   -6.6934 H         1 <0>         0.1112
     62 H24        -6.8266    4.2631   -5.4136 H         1 <0>         0.1246
     63 H25        -7.3766    2.5562   -5.4847 H         1 <0>         0.0901
     64 H26         1.0738   -1.3730    3.0910 H         1 <0>         0.0894
     65 H27         2.1919   -0.2226    2.3216 H         1 <0>         0.0941
     66 H28         0.8601   -0.2525    6.6674 H         1 <0>         0.1480
     67 H29        -3.5336    0.1282    6.5590 H         1 <0>         0.1438
     68 H30        -3.4037    0.8358    4.2993 H         1 <0>         0.1317
     69 H31        -2.0440    2.6706    3.4440 H         1 <0>         0.1036
     70 H32        -0.7212    2.8263    4.6248 H         1 <0>         0.0578
     71 H33        -0.3593    2.4076    2.9331 H         1 <0>         0.0747
     72 H34        -3.0872    2.2681    1.2739 H         1 <0>         0.3811
@<TRIPOS>BOND
     1    1    2 1
     2    1   42 1
     3    1   43 1
     4    1   44 1
     5    2    8 1
     6    2   12 1
     7    2    3 1
     8    3    4 1
     9    3   45 1
    10    3   46 1
    11    4    5 1
    12    4    6 1
    13    4   41 1
    14    6   37 1
    15    6    7 1
    16    6   40 1
    17    7    8 1
    18    7   28 1
    19    7   47 1
    20    8    9 1
    21    8   48 1
    22    9   10 1
    23    9   49 1
    24    9   50 1
    25   10   11 1
    26   10   15 1
    27   10   12 1
    28   12   13 1
    29   12   18 1
    30   13   14 1
    31   14   15 1
    32   14   16 1
    33   14   17 1
    34   16   51 1
    35   16   52 1
    36   16   53 1
    37   17   54 1
    38   17   55 1
    39   17   56 1
    40   18   19 2
    41   18   20 1
    42   20   21 1
    43   20   57 1
    44   20   58 1
    45   21   22 1
    46   22   26 1
    47   22   23 1
    48   22   59 1
    49   23   24 1
    50   23   60 1
    51   23   61 1
    52   24   25 1
    53   24   62 1
    54   24   63 1
    55   25   26 1
    56   26   27 2
    57   28   29 1
    58   28   64 1
    59   28   65 1
    60   29   30 1
    61   29   31 1
    62   29   39 1
    63   31   37 1
    64   31   32 2
    65   32   33 1
    66   32   66 1
    67   33   34 2
    68   33   35 1
    69   35   36 2
    70   35   67 1
    71   36   37 1
    72   36   68 1
    73   37   38 1
    74   38   69 1
    75   38   70 1
    76   38   71 1
    77   41   72 1
@<TRIPOS>MOLECULE
CHEMBL302366__1
   72    77     0     0     0
SMALL
NO_CHARGES

@<TRIPOS>ATOM
      1 C1         -0.9041    1.6729   -0.1362 C.3       1 <0>        -0.1680
      2 C2         -1.0986    0.1554   -0.1217 C.3       1 <0>        -0.0464
      3 C3         -2.4177   -0.1872    0.5444 C.3       1 <0>        -0.1298
      4 C4         -2.4128    0.4756    1.9310 C.3       1 <0>         0.0903
      5 H1         -3.3359    0.2194    2.4510 H         1 <0>         0.0762
      6 C5         -1.2244    0.0157    2.7703 C.3       1 <0>         0.1582
      7 C6          0.1067    0.2358    2.0345 C.3       1 <0>        -0.0974
      8 C7          0.0258   -0.5109    0.7152 C.3       1 <0>        -0.0802
      9 C8          1.2370   -0.3535   -0.2102 C.3       1 <0>        -0.1144
     10 C9          0.6544   -0.6835   -1.6117 C.3       1 <0>         0.0621
     11 H2          1.1344   -0.1112   -2.4055 H         1 <0>         0.1073
     12 C10        -0.8756   -0.4069   -1.5203 C.3       1 <0>         0.0531
     13 O1         -1.4873   -1.7058   -1.6368 O.3       1 <0>        -0.3380
     14 C11        -0.5215   -2.5002   -2.3583 C.3       1 <0>         0.2421
     15 O2          0.7671   -2.1069   -1.8151 O.3       1 <0>        -0.3577
     16 C12        -0.5792   -2.1820   -3.8537 C.3       1 <0>        -0.1946
     17 C13        -0.7707   -3.9906   -2.1186 C.3       1 <0>        -0.1373
     18 C14        -1.3402    0.5489   -2.5889 C.2       1 <0>         0.3856
     19 O3         -0.5619    1.3315   -3.0787 O.2       1 <0>        -0.4130
     20 C15        -2.7760    0.5279   -3.0461 C.3       1 <0>        -0.1616
     21 S1         -3.0580    1.8855   -4.2157 S.3       1 <0>        -0.1352
     22 C16        -4.8082    1.7222   -4.6638 C.3       1 <0>        -0.1537
     23 C17        -5.2224    2.8405   -5.6540 C.3       1 <0>        -0.1306
     24 C18        -6.0970    2.0337   -6.6514 C.3       1 <0>         0.0520
     25 O4         -5.4330    0.7528   -6.6916 O.3       1 <0>        -0.3331
     26 C19        -5.0410    0.4406   -5.4409 C.2       1 <0>         0.4895
     27 O5         -4.8976   -0.6785   -5.0087 O.2       1 <0>        -0.4399
     28 C20         1.2574   -0.3205    2.8753 C.3       1 <0>        -0.1423
     29 C21         1.3600    0.4591    4.1901 C.3       1 <0>         0.1265
     30 H3          1.6226    1.4966    3.9834 H         1 <0>         0.1076
     31 C22         0.0095    0.3997    4.8792 C.2       1 <0>        -0.0791
     32 C23        -0.0499    0.0052    6.1435 C.2       1 <0>        -0.1934
     33 C24        -1.3432   -0.0855    6.8387 C.2       1 <0>         0.4078
     34 O6         -1.3987   -0.4097    8.0103 O.2       1 <0>        -0.4465
     35 C25        -2.5692    0.2255    6.0844 C.2       1 <0>        -0.2056
     36 C26        -2.4857    0.6234    4.8247 C.2       1 <0>        -0.0697
     37 C27        -1.2017    0.7960    4.0878 C.3       1 <0>        -0.0228
     38 C28        -1.0728    2.2821    3.7475 C.3       1 <0>        -0.1386
     39 F1          2.3351   -0.1210    5.0085 F         1 <0>        -0.1961
     40 F2         -1.3566   -1.3494    3.0462 F         1 <0>        -0.1868
     41 O7         -2.3470    1.8939    1.7697 O.3       1 <0>        -0.5408
     42 H4         -0.0488    1.9237   -0.7635 H         1 <0>         0.0567
     43 H5         -1.7994    2.1502   -0.5348 H         1 <0>         0.0579
     44 H6         -0.7258    2.0260    0.8795 H         1 <0>         0.1129
     45 H7         -3.2452    0.2009   -0.0495 H         1 <0>         0.0767
     46 H8         -2.5104   -1.2681    0.6501 H         1 <0>         0.0935
     47 H9          0.2518    1.2997    1.8468 H         1 <0>         0.1191
     48 H10        -0.1999   -1.5634    0.8867 H         1 <0>         0.0970
     49 H11         1.6138    0.6689   -0.1807 H         1 <0>         0.0892
     50 H12         2.0209   -1.0619    0.0576 H         1 <0>         0.0917
     51 H13        -0.2525   -1.1554   -4.0196 H         1 <0>         0.0595
     52 H14         0.0759   -2.8639   -4.3959 H         1 <0>         0.0856
     53 H15        -1.6022   -2.2999   -4.2110 H         1 <0>         0.0812
     54 H16        -1.7719   -4.2513   -2.4618 H         1 <0>         0.0821
     55 H17        -0.0340   -4.5754   -2.6696 H         1 <0>         0.0823
     56 H18        -0.6837   -4.2069   -1.0539 H         1 <0>         0.0755
     57 H19        -2.9877   -0.4229   -3.5352 H         1 <0>         0.1318
     58 H20        -3.4333    0.6478   -2.1849 H         1 <0>         0.1181
     59 H21        -5.4341    1.7475   -3.7718 H         1 <0>         0.1326
     60 H22        -5.8067    3.6127   -5.1536 H         1 <0>         0.1112
     61 H23        -4.3518    3.2684   -6.1509 H         1 <0>         0.1032
     62 H24        -7.1150    1.9296   -6.2761 H         1 <0>         0.0900
     63 H25        -6.0928    2.5022   -7.6355 H         1 <0>         0.1244
     64 H26         1.0731   -1.3729    3.0911 H         1 <0>         0.0896
     65 H27         2.1913   -0.2226    2.3218 H         1 <0>         0.0944
     66 H28         0.8588   -0.2521    6.6674 H         1 <0>         0.1482
     67 H29        -3.5349    0.1286    6.5581 H         1 <0>         0.1438
     68 H30        -3.4045    0.8360    4.2984 H         1 <0>         0.1312
     69 H31        -2.0447    2.6707    3.4431 H         1 <0>         0.1031
     70 H32        -0.7222    2.8265    4.6242 H         1 <0>         0.0580
     71 H33        -0.3599    2.4077    2.9326 H         1 <0>         0.0748
     72 H34        -3.0875    2.2681    1.2729 H         1 <0>         0.3793
@<TRIPOS>BOND
     1    1    2 1
     2    1   42 1
     3    1   43 1
     4    1   44 1
     5    2    8 1
     6    2   12 1
     7    2    3 1
     8    3    4 1
     9    3   45 1
    10    3   46 1
    11    4    5 1
    12    4    6 1
    13    4   41 1
    14    6   37 1
    15    6    7 1
    16    6   40 1
    17    7    8 1
    18    7   28 1
    19    7   47 1
    20    8    9 1
    21    8   48 1
    22    9   10 1
    23    9   49 1
    24    9   50 1
    25   10   11 1
    26   10   15 1
    27   10   12 1
    28   12   13 1
    29   12   18 1
    30   13   14 1
    31   14   15 1
    32   14   16 1
    33   14   17 1
    34   16   51 1
    35   16   52 1
    36   16   53 1
    37   17   54 1
    38   17   55 1
    39   17   56 1
    40   18   19 2
    41   18   20 1
    42   20   21 1
    43   20   57 1
    44   20   58 1
    45   21   22 1
    46   22   26 1
    47   22   23 1
    48   22   59 1
    49   23   24 1
    50   23   60 1
    51   23   61 1
    52   24   25 1
    53   24   62 1
    54   24   63 1
    55   25   26 1
    56   26   27 2
    57   28   29 1
    58   28   64 1
    59   28   65 1
    60   29   30 1
    61   29   31 1
    62   29   39 1
    63   31   37 1
    64   31   32 2
    65   32   33 1
    66   32   66 1
    67   33   34 2
    68   33   35 1
    69   35   36 2
    70   35   67 1
    71   36   37 1
    72   36   68 1
    73   37   38 1
    74   38   69 1
    75   38   70 1
    76   38   71 1
    77   41   72 1
@<TRIPOS>MOLECULE
CHEMBL302366__2
   72    77     0     0     0
SMALL
USER_CHARGES

@<TRIPOS>ATOM
      1 C1         -1.4645    1.5553    0.2192 C.3       1 <0>        -0.1584
      2 C2         -1.4240    0.0378    0.0282 C.3       1 <0>        -0.0210
      3 C3         -2.6627   -0.6388    0.6213 C.3       1 <0>        -0.1324
      4 C4         -2.6152   -0.5979    2.1458 C.3       1 <0>         0.0895
      5 H1         -3.5242   -1.0419    2.5517 H         1 <0>         0.0766
      6 C5         -1.3963   -1.3953    2.6239 C.3       1 <0>         0.1581
      7 C6         -0.1318   -0.7163    2.0992 C.3       1 <0>        -0.0868
      8 C7         -0.1420   -0.5752    0.6151 C.3       1 <0>        -0.0762
      9 C8         -0.0412   -1.9410   -0.0883 C.3       1 <0>        -0.1363
     10 C9         -0.4824   -1.6366   -1.5370 C.3       1 <0>         0.0625
     11 H2          0.3714   -1.5184   -2.2042 H         1 <0>         0.1004
     12 C10        -1.3473   -0.3526   -1.4715 C.3       1 <0>         0.0419
     13 O1         -2.6612   -0.7733   -1.8937 O.3       1 <0>        -0.3392
     14 C11        -2.4329   -1.9633   -2.6782 C.3       1 <0>         0.2382
     15 O2         -1.3707   -2.6810   -1.9822 O.3       1 <0>        -0.3553
     16 C12        -3.7034   -2.8136   -2.7397 C.3       1 <0>        -0.1370
     17 C13        -1.9693   -1.5919   -4.0882 C.3       1 <0>        -0.1926
     18 C14        -0.7898    0.7587   -2.3231 C.2       1 <0>         0.3881
     19 O3          0.4008    0.8375   -2.5094 O.2       1 <0>        -0.4147
     20 C15        -1.7180    1.7717   -2.9423 C.3       1 <0>        -0.1632
     21 S1         -0.7433    3.0585   -3.7698 S.3       1 <0>        -0.1372
     22 C16        -1.9917    4.1833   -4.4532 C.3       1 <0>        -0.1540
     23 C17        -1.3134    5.3436   -5.2253 C.3       1 <0>        -0.1308
     24 C18        -2.1764    6.5460   -4.7563 C.3       1 <0>         0.0523
     25 O4         -2.4873    6.1998   -3.3900 O.3       1 <0>        -0.3330
     26 C19        -2.7483    4.8790   -3.3377 C.2       1 <0>         0.4908
     27 O5         -3.4687    4.3369   -2.5334 O.2       1 <0>        -0.4403
     28 C20         1.1066   -1.4957    2.5502 C.3       1 <0>        -0.1447
     29 C21         1.2040   -1.4740    4.0787 C.3       1 <0>         0.1272
     30 H3          1.3612   -0.4519    4.4233 H         1 <0>         0.1082
     31 C22        -0.0999   -2.0095    4.6399 C.2       1 <0>        -0.0790
     32 C23        -0.0629   -2.9921    5.5289 C.2       1 <0>        -0.1934
     33 C24        -1.3084   -3.5494    6.0791 C.2       1 <0>         0.4080
     34 O6         -1.2786   -4.4243    6.9243 O.2       1 <0>        -0.4468
     35 C25        -2.5921   -3.0240    5.5841 C.2       1 <0>        -0.2049
     36 C26        -2.6047   -2.0383    4.7005 C.2       1 <0>        -0.0701
     37 C27        -1.3778   -1.3910    4.1561 C.3       1 <0>        -0.0241
     38 C28        -1.3954    0.0675    4.6180 C.3       1 <0>        -0.1384
     39 F1          2.2669   -2.2822    4.4962 F         1 <0>        -0.1959
     40 F2         -1.4787   -2.7110    2.1558 F         1 <0>        -0.1799
     41 O7         -2.5067    0.7575    2.5854 O.3       1 <0>        -0.5435
     42 H4         -0.6784    2.0177   -0.3778 H         1 <0>         0.0526
     43 H5         -2.4347    1.9359   -0.1000 H         1 <0>         0.0655
     44 H6         -1.3091    1.7933    1.2715 H         1 <0>         0.0978
     45 H7         -3.5569   -0.1208    0.2747 H         1 <0>         0.0852
     46 H8         -2.7000   -1.6765    0.2898 H         1 <0>         0.0902
     47 H9         -0.0696    0.2834    2.5291 H         1 <0>         0.1117
     48 H10         0.7126    0.0301    0.3131 H         1 <0>         0.0884
     49 H11         0.9852   -2.3075   -0.0690 H         1 <0>         0.0834
     50 H12        -0.7155   -2.6616    0.3746 H         1 <0>         0.1098
     51 H13        -4.5059   -2.2352   -3.1975 H         1 <0>         0.0812
     52 H14        -3.5143   -3.7069   -3.3348 H         1 <0>         0.0822
     53 H15        -3.9952   -3.1043   -1.7305 H         1 <0>         0.0753
     54 H16        -0.9920   -1.1123   -4.0348 H         1 <0>         0.0596
     55 H17        -1.8989   -2.4935   -4.6967 H         1 <0>         0.0854
     56 H18        -2.6869   -0.9054   -4.5375 H         1 <0>         0.0787
     57 H19        -2.3608    1.2779   -3.6709 H         1 <0>         0.1215
     58 H20        -2.3321    2.2251   -2.1642 H         1 <0>         0.1320
     59 H21        -2.6798    3.6407   -5.1013 H         1 <0>         0.1327
     60 H22        -0.2734    5.4635   -4.9218 H         1 <0>         0.1032
     61 H23        -1.3928    5.1988   -6.3027 H         1 <0>         0.1111
     62 H24        -1.6040    7.4726   -4.7994 H         1 <0>         0.1244
     63 H25        -3.0861    6.6244   -5.3516 H         1 <0>         0.0900
     64 H26         1.0307   -2.5273    2.2065 H         1 <0>         0.0897
     65 H27         1.9987   -1.0371    2.1236 H         1 <0>         0.0936
     66 H28         0.8891   -3.3864    5.8522 H         1 <0>         0.1481
     67 H29        -3.5216   -3.4424    5.9411 H         1 <0>         0.1441
     68 H30        -3.5629   -1.6812    4.3532 H         1 <0>         0.1313
     69 H31        -2.3905    0.4851    4.4649 H         1 <0>         0.1000
     70 H32        -1.1396    0.1166    5.6764 H         1 <0>         0.0582
     71 H33        -0.6685    0.6399    4.0416 H         1 <0>         0.0772
     72 H34        -3.2423    1.3208    2.3086 H         1 <0>         0.3832
@<TRIPOS>BOND
     1    1    2 1
     2    1   42 1
     3    1   43 1
     4    1   44 1
     5    2    8 1
     6    2   12 1
     7    2    3 1
     8    3    4 1
     9    3   45 1
    10    3   46 1
    11    4    5 1
    12    4    6 1
    13    4   41 1
    14    6   37 1
    15    6    7 1
    16    6   40 1
    17    7    8 1
    18    7   28 1
    19    7   47 1
    20    8    9 1
    21    8   48 1
    22    9   10 1
    23    9   49 1
    24    9   50 1
    25   10   11 1
    26   10   15 1
    27   10   12 1
    28   12   13 1
    29   12   18 1
    30   13   14 1
    31   14   15 1
    32   14   16 1
    33   14   17 1
    34   16   51 1
    35   16   52 1
    36   16   53 1
    37   17   54 1
    38   17   55 1
    39   17   56 1
    40   18   19 2
    41   18   20 1
    42   20   21 1
    43   20   57 1
    44   20   58 1
    45   21   22 1
    46   22   26 1
    47   22   23 1
    48   22   59 1
    49   23   24 1
    50   23   60 1
    51   23   61 1
    52   24   25 1
    53   24   62 1
    54   24   63 1
    55   25   26 1
    56   26   27 2
    57   28   29 1
    58   28   64 1
    59   28   65 1
    60   29   30 1
    61   29   31 1
    62   29   39 1
    63   31   37 1
    64   31   32 2
    65   32   33 1
    66   32   66 1
    67   33   34 2
    68   33   35 1
    69   35   36 2
    70   35   67 1
    71   36   37 1
    72   36   68 1
    73   37   38 1
    74   38   69 1
    75   38   70 1
    76   38   71 1
    77   41   72 1
@<TRIPOS>MOLECULE
CHEMBL302366__3
   72    77     0     0     0
SMALL
NO_CHARGES

@<TRIPOS>ATOM
      1 C1         -1.4645    1.5554    0.2193 C.3       1 <0>        -0.1581
      2 C2         -1.4241    0.0379    0.0283 C.3       1 <0>        -0.0215
      3 C3         -2.6629   -0.6386    0.6215 C.3       1 <0>        -0.1326
      4 C4         -2.6154   -0.5977    2.1460 C.3       1 <0>         0.0896
      5 H1         -3.5244   -1.0416    2.5519 H         1 <0>         0.0768
      6 C5         -1.3965   -1.3950    2.6242 C.3       1 <0>         0.1579
      7 C6         -0.1319   -0.7161    2.0994 C.3       1 <0>        -0.0864
      8 C7         -0.1422   -0.5751    0.6153 C.3       1 <0>        -0.0761
      9 C8         -0.0413   -1.9410   -0.0881 C.3       1 <0>        -0.1364
     10 C9         -0.4826   -1.6366   -1.5367 C.3       1 <0>         0.0623
     11 H2          0.3713   -1.5185   -2.2039 H         1 <0>         0.1000
     12 C10        -1.3474   -0.3525   -1.4713 C.3       1 <0>         0.0414
     13 O1         -2.6613   -0.7732   -1.8935 O.3       1 <0>        -0.3393
     14 C11        -2.4331   -1.9632   -2.6780 C.3       1 <0>         0.2399
     15 O2         -1.3709   -2.6809   -1.9819 O.3       1 <0>        -0.3557
     16 C12        -1.9695   -1.5919   -4.0880 C.3       1 <0>        -0.1934
     17 C13        -3.7036   -2.8134   -2.7394 C.3       1 <0>        -0.1370
     18 C14        -0.7898    0.7587   -2.3230 C.2       1 <0>         0.3879
     19 O3          0.4007    0.8374   -2.5093 O.2       1 <0>        -0.4145
     20 C15        -1.7179    1.7718   -2.9421 C.3       1 <0>        -0.1629
     21 S1         -0.7432    3.0586   -3.7696 S.3       1 <0>        -0.1373
     22 C16        -1.9915    4.1835   -4.4529 C.3       1 <0>        -0.1532
     23 C17        -1.3124    5.3705   -5.1824 C.3       1 <0>        -0.1307
     24 C18        -2.2084    5.4842   -6.4452 C.3       1 <0>         0.0521
     25 O4         -2.5507    4.1086   -6.7165 O.3       1 <0>        -0.3332
     26 C19        -2.7903    3.4933   -5.5421 C.2       1 <0>         0.4899
     27 O5         -3.5221    2.5452   -5.3825 O.2       1 <0>        -0.4404
     28 C20         1.1064   -1.4956    2.5505 C.3       1 <0>        -0.1451
     29 C21         1.2038   -1.4738    4.0789 C.3       1 <0>         0.1275
     30 H3          1.3610   -0.4517    4.4235 H         1 <0>         0.1081
     31 C22        -0.1001   -2.0093    4.6402 C.2       1 <0>        -0.0795
     32 C23        -0.0632   -2.9918    5.5292 C.2       1 <0>        -0.1930
     33 C24        -1.3088   -3.5490    6.0794 C.2       1 <0>         0.4077
     34 O6         -1.2790   -4.4239    6.9246 O.2       1 <0>        -0.4463
     35 C25        -2.5924   -3.0236    5.5844 C.2       1 <0>        -0.2043
     36 C26        -2.6049   -2.0380    4.7007 C.2       1 <0>        -0.0708
     37 C27        -1.3780   -1.3907    4.1563 C.3       1 <0>        -0.0240
     38 C28        -1.3955    0.0678    4.6181 C.3       1 <0>        -0.1380
     39 F1          2.2666   -2.2821    4.4965 F         1 <0>        -0.1958
     40 F2         -1.4789   -2.7108    2.1560 F         1 <0>        -0.1796
     41 O7         -2.5068    0.7577    2.5855 O.3       1 <0>        -0.5433
     42 H4         -0.6784    2.0178   -0.3777 H         1 <0>         0.0544
     43 H5         -2.4347    1.9361   -0.0999 H         1 <0>         0.0627
     44 H6         -1.3091    1.7935    1.2716 H         1 <0>         0.0980
     45 H7         -3.5570   -0.1205    0.2749 H         1 <0>         0.0848
     46 H8         -2.7002   -1.6763    0.2900 H         1 <0>         0.0908
     47 H9         -0.0698    0.2836    2.5293 H         1 <0>         0.1114
     48 H10         0.7125    0.0301    0.3133 H         1 <0>         0.0886
     49 H11         0.9850   -2.3075   -0.0688 H         1 <0>         0.0835
     50 H12        -0.7157   -2.6614    0.3748 H         1 <0>         0.1096
     51 H13        -0.9921   -1.1123   -4.0346 H         1 <0>         0.0582
     52 H14        -1.8990   -2.4935   -4.6965 H         1 <0>         0.0852
     53 H15        -2.6870   -0.9054   -4.5374 H         1 <0>         0.0819
     54 H16        -4.5060   -2.2350   -3.1972 H         1 <0>         0.0821
     55 H17        -3.5145   -3.7068   -3.3345 H         1 <0>         0.0823
     56 H18        -3.9954   -3.1041   -1.7302 H         1 <0>         0.0748
     57 H19        -2.3608    1.2780   -3.6707 H         1 <0>         0.1310
     58 H20        -2.3320    2.2252   -2.1640 H         1 <0>         0.1223
     59 H21        -2.6522    4.5440   -3.6645 H         1 <0>         0.1332
     60 H22        -1.3596    6.2798   -4.5832 H         1 <0>         0.1114
     61 H23        -0.2833    5.1311   -5.4503 H         1 <0>         0.1031
     62 H24        -3.1026    6.0703   -6.2331 H         1 <0>         0.0901
     63 H25        -1.6511    5.9151   -7.2770 H         1 <0>         0.1243
     64 H26         1.0305   -2.5272    2.2068 H         1 <0>         0.0899
     65 H27         1.9986   -1.0371    2.1239 H         1 <0>         0.0937
     66 H28         0.8888   -3.3862    5.8525 H         1 <0>         0.1482
     67 H29        -3.5219   -3.4415    5.9419 H         1 <0>         0.1442
     68 H30        -3.5631   -1.6808    4.3534 H         1 <0>         0.1312
     69 H31        -2.3906    0.4855    4.4651 H         1 <0>         0.0996
     70 H32        -1.1398    0.1169    5.6766 H         1 <0>         0.0582
     71 H33        -0.6686    0.6401    4.0418 H         1 <0>         0.0771
     72 H34        -3.2423    1.3211    2.3087 H         1 <0>         0.3819
@<TRIPOS>BOND
     1    1    2 1
     2    1   42 1
     3    1   43 1
     4    1   44 1
     5    2    8 1
     6    2   12 1
     7    2    3 1
     8    3    4 1
     9    3   45 1
    10    3   46 1
    11    4    5 1
    12    4    6 1
    13    4   41 1
    14    6   37 1
    15    6    7 1
    16    6   40 1
    17    7    8 1
    18    7   28 1
    19    7   47 1
    20    8    9 1
    21    8   48 1
    22    9   10 1
    23    9   49 1
    24    9   50 1
    25   10   11 1
    26   10   15 1
    27   10   12 1
    28   12   13 1
    29   12   18 1
    30   13   14 1
    31   14   15 1
    32   14   16 1
    33   14   17 1
    34   16   51 1
    35   16   52 1
    36   16   53 1
    37   17   54 1
    38   17   55 1
    39   17   56 1
    40   18   19 2
    41   18   20 1
    42   20   21 1
    43   20   57 1
    44   20   58 1
    45   21   22 1
    46   22   26 1
    47   22   23 1
    48   22   59 1
    49   23   24 1
    50   23   60 1
    51   23   61 1
    52   24   25 1
    53   24   62 1
    54   24   63 1
    55   25   26 1
    56   26   27 2
    57   28   29 1
    58   28   64 1
    59   28   65 1
    60   29   30 1
    61   29   31 1
    62   29   39 1
    63   31   37 1
    64   31   32 2
    65   32   33 1
    66   32   66 1
    67   33   34 2
    68   33   35 1
    69   35   36 2
    70   35   67 1
    71   36   37 1
    72   36   68 1
    73   37   38 1
    74   38   69 1
    75   38   70 1
    76   38   71 1
    77   41   72 1
@<TRIPOS>MOLECULE
CHEMBL302366__4
   72    77     0     0     0
SMALL
USER_CHARGES

@<TRIPOS>ATOM
      1 C1          0.2128    1.6104    0.0237 C.3       1 <0>        -0.1723
      2 C2          0.1129    0.0852    0.0469 C.3       1 <0>        -0.0339
      3 C3         -1.3178   -0.3722    0.1895 C.3       1 <0>        -0.1367
      4 C4         -1.8458   -0.0315    1.5981 C.3       1 <0>         0.1048
      5 H1         -2.8498   -0.4865    1.6582 H         1 <0>         0.0700
      6 C5         -0.9760   -0.6313    2.6801 C.3       1 <0>         0.1673
      7 C6          0.5037   -0.2408    2.5355 C.3       1 <0>        -0.0795
      8 C7          0.9675   -0.5600    1.1547 C.3       1 <0>        -0.0797
      9 C8          2.3841   -0.1653    0.7227 C.3       1 <0>        -0.1147
     10 C9          2.3398   -0.4899   -0.8002 C.3       1 <0>         0.0666
     11 H2          2.9702    0.1822   -1.3811 H         1 <0>         0.1115
     12 C10         0.8431   -0.4117   -1.2167 C.3       1 <0>         0.0474
     13 O1          0.4603   -1.7551   -1.5204 O.3       1 <0>        -0.3398
     14 C11         1.6731   -2.4901   -1.7588 C.3       1 <0>         0.2484
     15 O2          2.6953   -1.8742   -0.9573 O.3       1 <0>        -0.3606
     16 C12         2.0566   -2.4471   -3.2418 C.3       1 <0>        -0.1857
     17 C13         1.4851   -3.9526   -1.3273 C.3       1 <0>        -0.1432
     18 C14         0.6195    0.5413   -2.3625 C.2       1 <0>         0.3868
     19 O3          1.4222    1.4152   -2.5865 O.2       1 <0>        -0.4144
     20 C15        -0.6059    0.4036   -3.2289 C.3       1 <0>        -0.1618
     21 S1         -0.6684    1.7783   -4.4107 S.3       1 <0>        -0.1355
     22 C16        -2.1801    1.4688   -5.3644 C.3       1 <0>        -0.1548
     23 C17        -2.3699    2.5577   -6.4510 C.3       1 <0>        -0.1308
     24 C18        -3.8950    2.8226   -6.3313 C.3       1 <0>         0.0523
     25 O4         -4.1353    2.6603   -4.9174 O.3       1 <0>        -0.3331
     26 C19        -3.4051    1.6150   -4.4820 C.2       1 <0>         0.4914
     27 O5         -3.6815    0.9084   -3.5417 O.2       1 <0>        -0.4419
     28 C20         0.6908    1.1996    2.9883 C.3       1 <0>        -0.1452
     29 C21         0.5785    1.2215    4.5143 C.3       1 <0>         0.1282
     30 H3          0.3636    2.2373    4.8459 H         1 <0>         0.1043
     31 C22        -0.5183    0.3090    4.9933 C.2       1 <0>        -0.0715
     32 C23        -0.6795    0.2362    6.3305 C.2       1 <0>        -0.1940
     33 C24        -1.6831   -0.6992    6.8800 C.2       1 <0>         0.4069
     34 O6         -2.1612   -0.5524    7.9976 O.2       1 <0>        -0.4455
     35 C25        -2.0549   -1.8530    6.0285 C.2       1 <0>        -0.2197
     36 C26        -1.8969   -1.7519    4.7044 C.2       1 <0>        -0.0730
     37 C27        -1.4358   -0.4517    4.1006 C.3       1 <0>        -0.0209
     38 C28        -2.7178    0.3799    4.0854 C.3       1 <0>        -0.1544
     39 F1          1.7925    0.8022    5.0700 F         1 <0>        -0.1990
     40 F2         -1.0026   -2.0338    2.4540 F         1 <0>        -0.2040
     41 O7         -1.9938    1.3783    1.7026 O.3       1 <0>        -0.5479
     42 H4          1.2557    1.9045   -0.0941 H         1 <0>         0.0656
     43 H5         -0.3710    2.0001   -0.8103 H         1 <0>         0.0558
     44 H6         -0.1752    2.0143    0.9588 H         1 <0>         0.1027
     45 H7         -1.9456    0.1243   -0.5548 H         1 <0>         0.0781
     46 H8         -1.3792   -1.4537    0.0397 H         1 <0>         0.0942
     47 H9          1.0689   -0.8866    3.2425 H         1 <0>         0.0905
     48 H10         0.8972   -1.6674    1.0284 H         1 <0>         0.0912
     49 H11         2.5963    0.8793    0.8990 H         1 <0>         0.0912
     50 H12         3.1216   -0.7980    1.2207 H         1 <0>         0.0903
     51 H13         2.2954   -1.4222   -3.5258 H         1 <0>         0.0583
     52 H14         2.9257   -3.0828   -3.4110 H         1 <0>         0.0830
     53 H15         1.2215   -2.8057   -3.8436 H         1 <0>         0.0782
     54 H16         0.6731   -4.3992   -1.9011 H         1 <0>         0.0795
     55 H17         2.4061   -4.5064   -1.5094 H         1 <0>         0.0805
     56 H18         1.2428   -3.9897   -0.2652 H         1 <0>         0.0732
     57 H19        -0.5629   -0.5406   -3.7718 H         1 <0>         0.1231
     58 H20        -1.4977    0.4222   -2.6024 H         1 <0>         0.1274
     59 H21        -2.1500    0.4769   -5.8154 H         1 <0>         0.1328
     60 H22        -1.7952    3.4534   -6.2153 H         1 <0>         0.1033
     61 H23        -2.1131    2.1765   -7.4394 H         1 <0>         0.1111
     62 H24        -4.1374    3.8362   -6.6506 H         1 <0>         0.1245
     63 H25        -4.4609    2.0895   -6.9061 H         1 <0>         0.0900
     64 H26         1.6816    1.5602    2.6955 H         1 <0>         0.0928
     65 H27        -0.0683    1.8590    2.5751 H         1 <0>         0.1165
     66 H28        -0.0742    0.8654    6.9878 H         1 <0>         0.1511
     67 H29        -2.4539   -2.7689    6.4741 H         1 <0>         0.1501
     68 H30        -2.1016   -2.6077    4.0612 H         1 <0>         0.1537
     69 H31        -3.4815   -0.1403    3.5073 H         1 <0>         0.0684
     70 H32        -3.0701    0.5231    5.1069 H         1 <0>         0.0603
     71 H33        -2.5162    1.3501    3.6312 H         1 <0>         0.1003
     72 H34        -2.6096    1.7577    1.0608 H         1 <0>         0.3898
@<TRIPOS>BOND
     1    1    2 1
     2    1   42 1
     3    1   43 1
     4    1   44 1
     5    2    8 1
     6    2   12 1
     7    2    3 1
     8    3    4 1
     9    3   45 1
    10    3   46 1
    11    4    5 1
    12    4    6 1
    13    4   41 1
    14    6   37 1
    15    6    7 1
    16    6   40 1
    17    7    8 1
    18    7   28 1
    19    7   47 1
    20    8    9 1
    21    8   48 1
    22    9   10 1
    23    9   49 1
    24    9   50 1
    25   10   11 1
    26   10   15 1
    27   10   12 1
    28   12   13 1
    29   12   18 1
    30   13   14 1
    31   14   15 1
    32   14   16 1
    33   14   17 1
    34   16   51 1
    35   16   52 1
    36   16   53 1
    37   17   54 1
    38   17   55 1
    39   17   56 1
    40   18   19 2
    41   18   20 1
    42   20   21 1
    43   20   57 1
    44   20   58 1
    45   21   22 1
    46   22   26 1
    47   22   23 1
    48   22   59 1
    49   23   24 1
    50   23   60 1
    51   23   61 1
    52   24   25 1
    53   24   62 1
    54   24   63 1
    55   25   26 1
    56   26   27 2
    57   28   29 1
    58   28   64 1
    59   28   65 1
    60   29   30 1
    61   29   31 1
    62   29   39 1
    63   31   37 1
    64   31   32 2
    65   32   33 1
    66   32   66 1
    67   33   34 2
    68   33   35 1
    69   35   36 2
    70   35   67 1
    71   36   37 1
    72   36   68 1
    73   37   38 1
    74   38   69 1
    75   38   70 1
    76   38   71 1
    77   41   72 1
@<TRIPOS>MOLECULE
CHEMBL302366__5
   72    77     0     0     0
SMALL
USER_CHARGES

@<TRIPOS>ATOM
      1 C1          0.2120    1.6116    0.0221 C.3       1 <0>        -0.1722
      2 C2          0.1119    0.0865    0.0462 C.3       1 <0>        -0.0341
      3 C3         -1.3193   -0.3694    0.1874 C.3       1 <0>        -0.1361
      4 C4         -1.8483   -0.0311    1.5963 C.3       1 <0>         0.1050
      5 H1         -2.8527   -0.4836    1.6546 H         1 <0>         0.0699
      6 C5         -0.9795   -0.6336    2.6784 C.3       1 <0>         0.1668
      7 C6          0.4994   -0.2357    2.5356 C.3       1 <0>        -0.0794
      8 C7          0.9658   -0.5571    1.1556 C.3       1 <0>        -0.0794
      9 C8          2.3804   -0.1574    0.7254 C.3       1 <0>        -0.1156
     10 C9          2.3426   -0.4748   -0.8007 C.3       1 <0>         0.0666
     11 H2          2.9685    0.2059   -1.3755 H         1 <0>         0.1120
     12 C10         0.8445   -0.4105   -1.2162 C.3       1 <0>         0.0474
     13 O1          0.4730   -1.7587   -1.5110 O.3       1 <0>        -0.3399
     14 C11         1.6907   -2.4868   -1.7496 C.3       1 <0>         0.2501
     15 O2          2.7144   -1.8537   -0.9647 O.3       1 <0>        -0.3613
     16 C12         1.5178   -3.9445   -1.2936 C.3       1 <0>        -0.1436
     17 C13         2.0606   -2.4645   -3.2359 C.3       1 <0>        -0.1856
     18 C14         0.6120    0.5332   -2.3668 C.2       1 <0>         0.3863
     19 O3          1.4076    1.4120   -2.5971 O.2       1 <0>        -0.4142
     20 C15        -0.6135    0.3808   -3.2306 C.3       1 <0>        -0.1613
     21 S1         -0.6884    1.7480   -4.4204 S.3       1 <0>        -0.1360
     22 C16        -2.1989    1.4210   -5.3701 C.3       1 <0>        -0.1536
     23 C17        -2.4253    2.5291   -6.4300 C.3       1 <0>        -0.1306
     24 C18        -2.8709    1.6766   -7.6486 C.3       1 <0>         0.0520
     25 O4         -2.0856    0.4749   -7.4996 O.3       1 <0>        -0.3331
     26 C19        -2.0473    0.1548   -6.1914 C.2       1 <0>         0.4894
     27 O5         -1.9132   -0.9599   -5.7448 O.2       1 <0>        -0.4396
     28 C20         0.6787    1.2046    2.9900 C.3       1 <0>        -0.1445
     29 C21         0.5560    1.2294    4.5161 C.3       1 <0>         0.1276
     30 H3          0.3223    2.2426    4.8416 H         1 <0>         0.1041
     31 C22        -0.5270    0.2993    4.9953 C.2       1 <0>        -0.0717
     32 C23        -0.6718    0.2095    6.3320 C.2       1 <0>        -0.1937
     33 C24        -1.6612   -0.7394    6.8850 C.2       1 <0>         0.4064
     34 O6         -2.1213   -0.6125    8.0121 O.2       1 <0>        -0.4448
     35 C25        -2.0395   -1.8841    6.0223 C.2       1 <0>        -0.2189
     36 C26        -1.8996   -1.7645    4.6970 C.2       1 <0>        -0.0736
     37 C27        -1.4418   -0.4609    4.0989 C.3       1 <0>        -0.0200
     38 C28        -2.7261    0.3681    4.0841 C.3       1 <0>        -0.1539
     39 F1          1.7742    0.8348    5.0809 F         1 <0>        -0.1991
     40 F2         -0.9993   -2.0344    2.4469 F         1 <0>        -0.2032
     41 O7         -1.9926    1.3790    1.7048 O.3       1 <0>        -0.5469
     42 H4          1.2550    1.9055   -0.0955 H         1 <0>         0.0661
     43 H5         -0.3714    2.0009   -0.8123 H         1 <0>         0.0561
     44 H6         -0.1763    2.0161    0.9568 H         1 <0>         0.1023
     45 H7         -1.9471    0.1316   -0.5552 H         1 <0>         0.0746
     46 H8         -1.3868   -1.4499    0.0326 H         1 <0>         0.0953
     47 H9          1.0670   -0.8797    3.2428 H         1 <0>         0.0903
     48 H10         0.8987   -1.6639    1.0311 H         1 <0>         0.0918
     49 H11         2.5897    0.8882    0.9074 H         1 <0>         0.0910
     50 H12         3.1212   -0.7900    1.2197 H         1 <0>         0.0901
     51 H13         0.7043   -4.4062   -1.8532 H         1 <0>         0.0800
     52 H14         2.4415   -4.4941   -1.4753 H         1 <0>         0.0805
     53 H15         1.2851   -3.9671   -0.2290 H         1 <0>         0.0725
     54 H16         2.2875   -1.4423   -3.5386 H         1 <0>         0.0574
     55 H17         2.9340   -3.0951   -3.4025 H         1 <0>         0.0829
     56 H18         1.2236   -2.8403   -3.8243 H         1 <0>         0.0806
     57 H19        -0.5637   -0.5662   -3.7679 H         1 <0>         0.1322
     58 H20        -1.5045    0.3961   -2.6030 H         1 <0>         0.1178
     59 H21        -3.0587    1.3442   -4.7045 H         1 <0>         0.1324
     60 H22        -3.2138    3.2150   -6.1200 H         1 <0>         0.1111
     61 H23        -1.5006    3.0657   -6.6421 H         1 <0>         0.1032
     62 H24        -3.9360    1.4514   -7.5939 H         1 <0>         0.0899
     63 H25        -2.6294    2.1827   -8.5833 H         1 <0>         0.1243
     64 H26         1.6704    1.5705    2.7061 H         1 <0>         0.0928
     65 H27        -0.0789    1.8635    2.5734 H         1 <0>         0.1164
     66 H28        -0.0622    0.8321    6.9936 H         1 <0>         0.1514
     67 H29        -2.4256   -2.8074    6.4631 H         1 <0>         0.1501
     68 H30        -2.1228   -2.6103    4.0469 H         1 <0>         0.1528
     69 H31        -3.4874   -0.1517    3.5025 H         1 <0>         0.0680
     70 H32        -3.0809    0.5067    5.1054 H         1 <0>         0.0606
     71 H33        -2.5259    1.3404    3.6340 H         1 <0>         0.0999
     72 H34        -2.6063    1.7621    1.0632 H         1 <0>         0.3881
@<TRIPOS>BOND
     1    1    2 1
     2    1   42 1
     3    1   43 1
     4    1   44 1
     5    2    8 1
     6    2   12 1
     7    2    3 1
     8    3    4 1
     9    3   45 1
    10    3   46 1
    11    4    5 1
    12    4    6 1
    13    4   41 1
    14    6   37 1
    15    6    7 1
    16    6   40 1
    17    7    8 1
    18    7   28 1
    19    7   47 1
    20    8    9 1
    21    8   48 1
    22    9   10 1
    23    9   49 1
    24    9   50 1
    25   10   11 1
    26   10   15 1
    27   10   12 1
    28   12   13 1
    29   12   18 1
    30   13   14 1
    31   14   15 1
    32   14   16 1
    33   14   17 1
    34   16   51 1
    35   16   52 1
    36   16   53 1
    37   17   54 1
    38   17   55 1
    39   17   56 1
    40   18   19 2
    41   18   20 1
    42   20   21 1
    43   20   57 1
    44   20   58 1
    45   21   22 1
    46   22   26 1
    47   22   23 1
    48   22   59 1
    49   23   24 1
    50   23   60 1
    51   23   61 1
    52   24   25 1
    53   24   62 1
    54   24   63 1
    55   25   26 1
    56   26   27 2
    57   28   29 1
    58   28   64 1
    59   28   65 1
    60   29   30 1
    61   29   31 1
    62   29   39 1
    63   31   37 1
    64   31   32 2
    65   32   33 1
    66   32   66 1
    67   33   34 2
    68   33   35 1
    69   35   36 2
    70   35   67 1
    71   36   37 1
    72   36   68 1
    73   37   38 1
    74   38   69 1
    75   38   70 1
    76   38   71 1
    77   41   72 1
@<TRIPOS>MOLECULE
CHEMBL302366__6
   72    77     0     0     0
SMALL
USER_CHARGES

@<TRIPOS>ATOM
      1 C1         -0.0455    0.8226   -0.2313 C.3       1 <0>        -0.1693
      2 C2         -0.1513   -0.7013   -0.1465 C.3       1 <0>        -0.0224
      3 C3         -1.5718   -1.1495    0.2068 C.3       1 <0>        -0.1319
      4 C4         -1.8956   -0.8138    1.6599 C.3       1 <0>         0.0817
      5 H1         -2.9240   -1.0998    1.8808 H         1 <0>         0.0899
      6 C5         -0.9386   -1.5926    2.5696 C.3       1 <0>         0.1632
      7 C6          0.4871   -1.1376    2.2834 C.3       1 <0>        -0.0861
      8 C7          0.8626   -1.2874    0.8515 C.3       1 <0>        -0.0738
      9 C8          0.9576   -2.7680    0.4386 C.3       1 <0>        -0.1385
     10 C9          0.9206   -2.7191   -1.1046 C.3       1 <0>         0.0633
     11 H2          1.9177   -2.8046   -1.5367 H         1 <0>         0.0993
     12 C10         0.2380   -1.3813   -1.4855 C.3       1 <0>         0.0422
     13 O1         -0.9761   -1.7680   -2.1620 O.3       1 <0>        -0.3395
     14 C11        -0.7208   -3.1043   -2.6441 C.3       1 <0>         0.2381
     15 O2          0.0384   -3.7547   -1.5819 O.3       1 <0>        -0.3556
     16 C12        -2.0377   -3.8430   -2.8913 C.3       1 <0>        -0.1367
     17 C13         0.1152   -3.0587   -3.9247 C.3       1 <0>        -0.1927
     18 C14         1.1242   -0.5063   -2.3339 C.2       1 <0>         0.3878
     19 O3          2.3236   -0.5522   -2.2009 O.2       1 <0>        -0.4146
     20 C15         0.5138    0.4261   -3.3484 C.3       1 <0>        -0.1629
     21 S1          1.8138    1.4575   -4.0809 S.3       1 <0>        -0.1370
     22 C16         0.9262    2.5082   -5.2636 C.3       1 <0>        -0.1540
     23 C17         1.9127    3.4468   -6.0041 C.3       1 <0>        -0.1308
     24 C18         1.1055    4.7729   -6.0034 C.3       1 <0>         0.0523
     25 O4          0.4130    4.7225   -4.7380 O.3       1 <0>        -0.3330
     26 C19        -0.0061    3.4580   -4.5359 C.2       1 <0>         0.4907
     27 O5         -0.9687    3.1334   -3.8818 O.2       1 <0>        -0.4402
     28 C20         0.6187    0.3298    2.7118 C.3       1 <0>        -0.1803
     29 C21         0.6494    0.3618    4.2412 C.3       1 <0>         0.1348
     30 H3          0.5535    1.3926    4.5821 H         1 <0>         0.1004
     31 C22        -0.4768   -0.4541    4.8047 C.2       1 <0>        -0.0771
     32 C23        -0.7514   -0.3392    6.1250 C.2       1 <0>        -0.1916
     33 C24        -1.8459   -1.2216    6.6143 C.2       1 <0>         0.4137
     34 O6         -2.6915   -0.8415    7.4025 O.2       1 <0>        -0.4389
     35 C25        -1.8262   -2.6052    6.0641 C.2       1 <0>        -0.2168
     36 C26        -1.5422   -2.6913    4.7462 C.2       1 <0>        -0.0841
     37 C27        -1.3154   -1.3987    4.0137 C.3       1 <0>        -0.0252
     38 C28        -2.6995   -0.7482    3.9722 C.3       1 <0>        -0.1747
     39 F1          1.8660   -0.1628    4.6906 F         1 <0>        -0.2024
     40 F2         -1.0305   -2.9536    2.2589 F         1 <0>        -0.1850
     41 O7         -1.7315    0.5893    1.8757 O.3       1 <0>        -0.5354
     42 H4          0.9312    1.0975   -0.6296 H         1 <0>         0.0540
     43 H5         -0.8266    1.2051   -0.8884 H         1 <0>         0.0646
     44 H6         -0.1657    1.2511    0.7637 H         1 <0>         0.1032
     45 H7         -2.2817   -0.6415   -0.4461 H         1 <0>         0.0850
     46 H8         -1.6561   -2.2262    0.0594 H         1 <0>         0.0919
     47 H9          1.1706   -1.7264    2.8953 H         1 <0>         0.0907
     48 H10         1.8340   -0.8202    0.6900 H         1 <0>         0.0872
     49 H11         1.8946   -3.2034    0.7859 H         1 <0>         0.0819
     50 H12         0.1067   -3.3291    0.8248 H         1 <0>         0.1139
     51 H13        -2.6230   -3.3029   -3.6355 H         1 <0>         0.0809
     52 H14        -1.8274   -4.8489   -3.2545 H         1 <0>         0.0819
     53 H15        -2.6008   -3.9032   -1.9600 H         1 <0>         0.0753
     54 H16         1.1065   -2.6666   -3.6977 H         1 <0>         0.0596
     55 H17         0.2074   -4.0646   -4.3344 H         1 <0>         0.0852
     56 H18        -0.3728   -2.4126   -4.6544 H         1 <0>         0.0784
     57 H19         0.0279   -0.1564   -4.1311 H         1 <0>         0.1213
     58 H20        -0.2230    1.0632   -2.8592 H         1 <0>         0.1317
     59 H21         0.3703    1.8968   -5.9744 H         1 <0>         0.1325
     60 H22         2.8454    3.5534   -5.4501 H         1 <0>         0.1032
     61 H23         2.0985    3.0996   -7.0205 H         1 <0>         0.1110
     62 H24         1.7744    5.6326   -6.0439 H         1 <0>         0.1244
     63 H25         0.3966    4.7943   -6.8312 H         1 <0>         0.0899
     64 H26         1.5426    0.7500    2.3142 H         1 <0>         0.0845
     65 H27        -0.2355    0.9000    2.3467 H         1 <0>         0.1595
     66 H28        -0.2176    0.3398    6.7734 H         1 <0>         0.1570
     67 H29        -2.0239   -3.4749    6.6732 H         1 <0>         0.1557
     68 H30        -1.4807   -3.6447    4.2424 H         1 <0>         0.1520
     69 H31        -3.3739   -1.3663    3.3795 H         1 <0>         0.0711
     70 H32        -3.0882   -0.6559    4.9864 H         1 <0>         0.0598
     71 H33        -2.6226    0.2412    3.5212 H         1 <0>         0.1053
     72 H34        -2.3010    1.1416    1.3228 H         1 <0>         0.3809
@<TRIPOS>BOND
     1    1    2 1
     2    1   42 1
     3    1   43 1
     4    1   44 1
     5    2    8 1
     6    2   12 1
     7    2    3 1
     8    3    4 1
     9    3   45 1
    10    3   46 1
    11    4    5 1
    12    4    6 1
    13    4   41 1
    14    6   37 1
    15    6    7 1
    16    6   40 1
    17    7    8 1
    18    7   28 1
    19    7   47 1
    20    8    9 1
    21    8   48 1
    22    9   10 1
    23    9   49 1
    24    9   50 1
    25   10   11 1
    26   10   15 1
    27   10   12 1
    28   12   13 1
    29   12   18 1
    30   13   14 1
    31   14   15 1
    32   14   16 1
    33   14   17 1
    34   16   51 1
    35   16   52 1
    36   16   53 1
    37   17   54 1
    38   17   55 1
    39   17   56 1
    40   18   19 2
    41   18   20 1
    42   20   21 1
    43   20   57 1
    44   20   58 1
    45   21   22 1
    46   22   26 1
    47   22   23 1
    48   22   59 1
    49   23   24 1
    50   23   60 1
    51   23   61 1
    52   24   25 1
    53   24   62 1
    54   24   63 1
    55   25   26 1
    56   26   27 2
    57   28   29 1
    58   28   64 1
    59   28   65 1
    60   29   30 1
    61   29   31 1
    62   29   39 1
    63   31   37 1
    64   31   32 2
    65   32   33 1
    66   32   66 1
    67   33   34 2
    68   33   35 1
    69   35   36 2
    70   35   67 1
    71   36   37 1
    72   36   68 1
    73   37   38 1
    74   38   69 1
    75   38   70 1
    76   38   71 1
    77   41   72 1
@<TRIPOS>MOLECULE
CHEMBL302366__7
   72    77     0     0     0
SMALL
USER_CHARGES

@<TRIPOS>ATOM
      1 C1         -0.0451    0.8223   -0.2308 C.3       1 <0>        -0.1690
      2 C2         -0.1511   -0.7016   -0.1461 C.3       1 <0>        -0.0229
      3 C3         -1.5718   -1.1495    0.2074 C.3       1 <0>        -0.1320
      4 C4         -1.8953   -0.8138    1.6606 C.3       1 <0>         0.0818
      5 H1         -2.9237   -1.0996    1.8816 H         1 <0>         0.0900
      6 C5         -0.9383   -1.5929    2.5701 C.3       1 <0>         0.1631
      7 C6          0.4875   -1.1381    2.2838 C.3       1 <0>        -0.0865
      8 C7          0.8627   -1.2879    0.8518 C.3       1 <0>        -0.0736
      9 C8          0.9574   -2.7686    0.4388 C.3       1 <0>        -0.1385
     10 C9          0.9202   -2.7196   -1.1043 C.3       1 <0>         0.0630
     11 H2          1.9172   -2.8053   -1.5365 H         1 <0>         0.0990
     12 C10         0.2377   -1.3817   -1.4851 C.3       1 <0>         0.0418
     13 O1         -0.9765   -1.7680   -2.1615 O.3       1 <0>        -0.3397
     14 C11        -0.7215   -3.1044   -2.6437 C.3       1 <0>         0.2397
     15 O2          0.0377   -3.7549   -1.5815 O.3       1 <0>        -0.3559
     16 C12         0.1143   -3.0590   -3.9244 C.3       1 <0>        -0.1935
     17 C13        -2.0386   -3.8428   -2.8907 C.3       1 <0>        -0.1367
     18 C14         1.1241   -0.5068   -2.3336 C.2       1 <0>         0.3875
     19 O3          2.3235   -0.5529   -2.2007 O.2       1 <0>        -0.4145
     20 C15         0.5137    0.4258   -3.3480 C.3       1 <0>        -0.1625
     21 S1          1.8138    1.4571   -4.0805 S.3       1 <0>        -0.1372
     22 C16         0.9262    2.5080   -5.2630 C.3       1 <0>        -0.1533
     23 C17         1.9058    3.4809   -5.9676 C.3       1 <0>        -0.1307
     24 C18         1.3868    3.4054   -7.4289 C.3       1 <0>         0.0521
     25 O4          0.9669    2.0294   -7.5460 O.3       1 <0>        -0.3333
     26 C19         0.3609    1.6734   -6.3964 C.2       1 <0>         0.4899
     27 O5         -0.4936    0.8263   -6.2862 O.2       1 <0>        -0.4405
     28 C20         0.6194    0.3292    2.7122 C.3       1 <0>        -0.1796
     29 C21         0.6503    0.3612    4.2416 C.3       1 <0>         0.1349
     30 H3          0.5547    1.3920    4.5826 H         1 <0>         0.1002
     31 C22        -0.4760   -0.4545    4.8053 C.2       1 <0>        -0.0777
     32 C23        -0.7504   -0.3396    6.1256 C.2       1 <0>        -0.1912
     33 C24        -1.8450   -1.2217    6.6149 C.2       1 <0>         0.4136
     34 O6         -2.6904   -0.8415    7.4032 O.2       1 <0>        -0.4387
     35 C25        -1.8257   -2.6054    6.0647 C.2       1 <0>        -0.2167
     36 C26        -1.5419   -2.6915    4.7468 C.2       1 <0>        -0.0845
     37 C27        -1.3148   -1.3989    4.0143 C.3       1 <0>        -0.0252
     38 C28        -2.6989   -0.7481    3.9730 C.3       1 <0>        -0.1744
     39 F1          1.8668   -0.1637    4.6908 F         1 <0>        -0.2022
     40 F2         -1.0305   -2.9538    2.2594 F         1 <0>        -0.1846
     41 O7         -1.7309    0.5892    1.8764 O.3       1 <0>        -0.5352
     42 H4          0.9319    1.0970   -0.6285 H         1 <0>         0.0557
     43 H5         -0.8257    1.2049   -0.8883 H         1 <0>         0.0618
     44 H6         -0.1658    1.2508    0.7642 H         1 <0>         0.1035
     45 H7         -2.2816   -0.6413   -0.4453 H         1 <0>         0.0845
     46 H8         -1.6562   -2.2262    0.0600 H         1 <0>         0.0925
     47 H9          1.1709   -1.7271    2.8955 H         1 <0>         0.0909
     48 H10         1.8342   -0.8209    0.6902 H         1 <0>         0.0874
     49 H11         1.8943   -3.2041    0.7860 H         1 <0>         0.0819
     50 H12         0.1064   -3.3295    0.8252 H         1 <0>         0.1138
     51 H13         1.1057   -2.6668   -3.6975 H         1 <0>         0.0581
     52 H14         0.2064   -4.0648   -4.3340 H         1 <0>         0.0850
     53 H15        -0.3738   -2.4128   -4.6540 H         1 <0>         0.0816
     54 H16        -2.6239   -3.3026   -3.6348 H         1 <0>         0.0818
     55 H17        -1.8286   -4.8488   -3.2539 H         1 <0>         0.0820
     56 H18        -2.6016   -3.9029   -1.9593 H         1 <0>         0.0747
     57 H19         0.0277   -0.1567   -4.1307 H         1 <0>         0.1308
     58 H20        -0.2230    1.0629   -2.8587 H         1 <0>         0.1220
     59 H21         0.1312    3.0595   -4.7611 H         1 <0>         0.1330
     60 H22         1.8125    4.4909   -5.5685 H         1 <0>         0.1113
     61 H23         2.9336    3.1250   -5.8960 H         1 <0>         0.1032
     62 H24         0.5436    4.0805   -7.5749 H         1 <0>         0.0900
     63 H25         2.1871    3.6266   -8.1351 H         1 <0>         0.1242
     64 H26         1.5433    0.7493    2.3144 H         1 <0>         0.0844
     65 H27        -0.2347    0.8996    2.3472 H         1 <0>         0.1590
     66 H28        -0.2164    0.3392    6.7740 H         1 <0>         0.1571
     67 H29        -2.0235   -3.4750    6.6738 H         1 <0>         0.1558
     68 H30        -1.4806   -3.6449    4.2430 H         1 <0>         0.1521
     69 H31        -3.3734   -1.3660    3.3803 H         1 <0>         0.0711
     70 H32        -3.0874   -0.6559    4.9872 H         1 <0>         0.0598
     71 H33        -2.6218    0.2413    3.5221 H         1 <0>         0.1049
     72 H34        -2.3003    1.1417    1.3236 H         1 <0>         0.3796
@<TRIPOS>BOND
     1    1    2 1
     2    1   42 1
     3    1   43 1
     4    1   44 1
     5    2    8 1
     6    2   12 1
     7    2    3 1
     8    3    4 1
     9    3   45 1
    10    3   46 1
    11    4    5 1
    12    4    6 1
    13    4   41 1
    14    6   37 1
    15    6    7 1
    16    6   40 1
    17    7    8 1
    18    7   28 1
    19    7   47 1
    20    8    9 1
    21    8   48 1
    22    9   10 1
    23    9   49 1
    24    9   50 1
    25   10   11 1
    26   10   15 1
    27   10   12 1
    28   12   13 1
    29   12   18 1
    30   13   14 1
    31   14   15 1
    32   14   16 1
    33   14   17 1
    34   16   51 1
    35   16   52 1
    36   16   53 1
    37   17   54 1
    38   17   55 1
    39   17   56 1
    40   18   19 2
    41   18   20 1
    42   20   21 1
    43   20   57 1
    44   20   58 1
    45   21   22 1
    46   22   26 1
    47   22   23 1
    48   22   59 1
    49   23   24 1
    50   23   60 1
    51   23   61 1
    52   24   25 1
    53   24   62 1
    54   24   63 1
    55   25   26 1
    56   26   27 2
    57   28   29 1
    58   28   64 1
    59   28   65 1
    60   29   30 1
    61   29   31 1
    62   29   39 1
    63   31   37 1
    64   31   32 2
    65   32   33 1
    66   32   66 1
    67   33   34 2
    68   33   35 1
    69   35   36 2
    70   35   67 1
    71   36   37 1
    72   36   68 1
    73   37   38 1
    74   38   69 1
    75   38   70 1
    76   38   71 1
    77   41   72 1
@<TRIPOS>MOLECULE
CHEMBL220955
   73    78     0     0     0
SMALL
USER_CHARGES

@<TRIPOS>ATOM
      1 C1         -1.5904    2.2184    1.0262 C.3       1 <0>        -0.0465
      2 C2         -1.1360    0.8202    1.0998 C.1       1 <0>        -0.1625
      3 C3         -0.7736   -0.2949    1.1585 C.1       1 <0>        -0.2132
      4 C4         -0.3192   -1.6931    1.2321 C.3       1 <0>         0.2584
      5 C5          0.9205   -1.9016    0.3290 C.3       1 <0>        -0.1449
      6 C6          0.4932   -2.9016   -0.7782 C.3       1 <0>        -0.1135
      7 C7         -1.0308   -2.7307   -0.8307 C.3       1 <0>        -0.0799
      8 H1         -1.2950   -1.8113   -1.3532 H         1 <0>         0.0803
      9 C8         -1.3914   -2.6272    0.6748 C.3       1 <0>        -0.0374
     10 C9         -2.8179   -2.1129    0.7595 C.3       1 <0>        -0.0950
     11 C10        -3.7330   -3.2186    0.2113 C.3       1 <0>        -0.0269
     12 H2         -4.7478   -2.8314    0.1204 H         1 <0>         0.1046
     13 C11        -3.2565   -3.6914   -1.1478 C.2       1 <0>        -0.0480
     14 C12        -4.1792   -3.8903   -2.0871 C.2       1 <0>        -0.1285
     15 C13        -5.6412   -3.6378   -1.7971 C.3       1 <0>        -0.0815
     16 C14        -6.2599   -2.9178   -2.9992 C.3       1 <0>        -0.1660
     17 C15        -5.9290   -3.6559   -4.2681 C.2       1 <0>         0.3868
     18 O1         -6.7519   -3.7052   -5.1602 O.2       1 <0>        -0.4698
     19 C16        -4.6858   -4.2894   -4.4415 C.2       1 <0>        -0.2461
     20 C17        -3.8131   -4.3807   -3.4156 C.2       1 <0>         0.0255
     21 C18        -2.4438   -4.9912   -3.5880 C.3       1 <0>        -0.0954
     22 C19        -1.4408   -4.0921   -2.8666 C.3       1 <0>        -0.1115
     23 C20        -1.7858   -3.9148   -1.4199 C.3       1 <0>        -0.0451
     24 H3         -1.4759   -4.8233   -0.9037 H         1 <0>         0.0936
     25 C21        -3.7311   -4.3827    1.1683 C.ar      1 <0>        -0.0527
     26 C22        -3.8022   -4.1548    2.5308 C.ar      1 <0>        -0.1106
     27 C23        -3.8013   -5.2172    3.4117 C.ar      1 <0>        -0.1072
     28 C24        -3.7285   -6.5215    2.9262 C.ar      1 <0>        -0.0403
     29 C25        -3.6570   -6.7452    1.5526 C.ar      1 <0>        -0.1099
     30 C26        -3.6640   -5.6754    0.6806 C.ar      1 <0>        -0.1206
     31 C27        -3.7267   -7.6676    3.8683 C.ar      1 <0>        -0.0821
     32 C28        -3.8036   -7.4427    5.2417 C.ar      1 <0>        -0.0701
     33 C29        -3.8021   -8.5100    6.1150 C.ar      1 <0>        -0.1489
     34 C30        -3.7237   -9.8075    5.6274 C.ar      1 <0>         0.1289
     35 C31        -3.6470  -10.0346    4.2599 C.ar      1 <0>        -0.2058
     36 C32        -3.6538   -8.9715    3.3815 C.ar      1 <0>        -0.0698
     37 O2         -3.7216  -10.8571    6.4902 O.3       1 <0>        -0.3169
     38 C33        -3.6387  -12.1650    5.9205 C.3       1 <0>         0.0261
     39 C34        -1.2791   -4.0029    1.3347 C.3       1 <0>        -0.1525
     40 O3         -0.0131   -2.0423    2.5835 O.3       1 <0>        -0.5387
     41 H4         -0.8166    2.8735    1.4266 H         1 <0>         0.0818
     42 H5         -1.7877    2.4821   -0.0129 H         1 <0>         0.0822
     43 H6         -2.5032    2.3350    1.6103 H         1 <0>         0.0822
     44 H7          1.2210   -0.9541   -0.1184 H         1 <0>         0.0722
     45 H8          1.7422   -2.3177    0.9120 H         1 <0>         0.0811
     46 H9          0.9440   -2.6340   -1.7339 H         1 <0>         0.0715
     47 H10         0.7571   -3.9216   -0.4988 H         1 <0>         0.0755
     48 H11        -3.0745   -1.8993    1.7971 H         1 <0>         0.0763
     49 H12        -2.9237   -1.2109    0.1568 H         1 <0>         0.0708
     50 H13        -6.1518   -4.5873   -1.6367 H         1 <0>         0.0823
     51 H14        -5.7356   -3.0138   -0.9084 H         1 <0>         0.0921
     52 H15        -7.3422   -2.8750   -2.8774 H         1 <0>         0.0949
     53 H16        -5.8637   -1.9039   -3.0568 H         1 <0>         0.0989
     54 H17        -4.4269   -4.7063   -5.4036 H         1 <0>         0.1352
     55 H18        -2.4265   -5.9895   -3.1507 H         1 <0>         0.0892
     56 H19        -2.1947   -5.0468   -4.6477 H         1 <0>         0.0860
     57 H20        -0.4467   -4.5317   -2.9488 H         1 <0>         0.0795
     58 H21        -1.4349   -3.1123   -3.3440 H         1 <0>         0.0674
     59 H22        -3.8582   -3.1436    2.9059 H         1 <0>         0.1245
     60 H23        -3.8565   -5.0382    4.4753 H         1 <0>         0.1239
     61 H24        -3.6005   -7.7539    1.1710 H         1 <0>         0.1219
     62 H25        -3.6131   -5.8478   -0.3843 H         1 <0>         0.1239
     63 H26        -3.8639   -6.4335    5.6216 H         1 <0>         0.1327
     64 H27        -3.8617   -8.3363    7.1793 H         1 <0>         0.1331
     65 H28        -3.5857  -11.0451    3.8835 H         1 <0>         0.1299
     66 H29        -3.5983   -9.1490    2.3176 H         1 <0>         0.1276
     67 H30        -4.4915  -12.3291    5.2618 H         1 <0>         0.0564
     68 H31        -2.7152  -12.2543    5.3484 H         1 <0>         0.0564
     69 H32        -3.6462  -12.9093    6.7168 H         1 <0>         0.1016
     70 H33        -1.7047   -3.9608    2.3373 H         1 <0>         0.0727
     71 H34        -1.8227   -4.7368    0.7397 H         1 <0>         0.0818
     72 H35        -0.2298   -4.2914    1.3972 H         1 <0>         0.0505
     73 H36         0.6756   -1.4948    2.9848 H         1 <0>         0.3777
@<TRIPOS>BOND
     1    1    2 1
     2    1   41 1
     3    1   42 1
     4    1   43 1
     5    2    3 3
     6    3    4 1
     7    4    9 1
     8    4    5 1
     9    4   40 1
    10    5    6 1
    11    5   44 1
    12    5   45 1
    13    6    7 1
    14    6   46 1
    15    6   47 1
    16    7    8 1
    17    7   23 1
    18    7    9 1
    19    9   10 1
    20    9   39 1
    21   10   11 1
    22   10   48 1
    23   10   49 1
    24   11   12 1
    25   11   13 1
    26   11   25 1
    27   13   23 1
    28   13   14 2
    29   14   20 1
    30   14   15 1
    31   15   16 1
    32   15   50 1
    33   15   51 1
    34   16   17 1
    35   16   52 1
    36   16   53 1
    37   17   18 2
    38   17   19 1
    39   19   20 2
    40   19   54 1
    41   20   21 1
    42   21   22 1
    43   21   55 1
    44   21   56 1
    45   22   23 1
    46   22   57 1
    47   22   58 1
    48   23   24 1
    49   25   30 ar
    50   25   26 ar
    51   26   27 ar
    52   26   59 1
    53   27   28 ar
    54   27   60 1
    55   28   29 ar
    56   28   31 1
    57   29   30 ar
    58   29   61 1
    59   30   62 1
    60   31   36 ar
    61   31   32 ar
    62   32   33 ar
    63   32   63 1
    64   33   34 ar
    65   33   64 1
    66   34   35 ar
    67   34   37 1
    68   35   36 ar
    69   35   65 1
    70   36   66 1
    71   37   38 1
    72   38   67 1
    73   38   68 1
    74   38   69 1
    75   39   70 1
    76   39   71 1
    77   39   72 1
    78   40   73 1
@<TRIPOS>MOLECULE
CHEMBL397191
   69    74     0     0     0
SMALL
USER_CHARGES

@<TRIPOS>ATOM
      1 C1          0.1113    1.6111    0.2974 C.3       1 <0>        -0.1530
      2 C2          0.1783    0.0830    0.2624 C.3       1 <0>        -0.0354
      3 C3         -1.2257   -0.4962    0.2593 C.3       1 <0>        -0.0974
      4 C4         -1.9864    0.1513    1.4273 C.3       1 <0>        -0.0103
      5 H1         -2.9472   -0.3486    1.5504 H         1 <0>         0.0993
      6 C5         -1.1978    0.0370    2.7131 C.2       1 <0>        -0.0892
      7 C6         -1.8514   -0.2821    3.8295 C.2       1 <0>        -0.1180
      8 C7         -3.3419   -0.5155    3.8297 C.3       1 <0>        -0.0775
      9 C8         -3.6526   -1.7155    4.7294 C.3       1 <0>        -0.1660
     10 C9         -2.9777   -1.5506    6.0642 C.2       1 <0>         0.3862
     11 O1         -3.5430   -1.9334    7.0689 O.2       1 <0>        -0.4635
     12 C10        -1.7045   -0.9623    6.1709 C.2       1 <0>        -0.2237
     13 C11        -1.1268   -0.3819    5.0986 C.2       1 <0>        -0.0242
     14 C12         0.2702    0.1878    5.1484 C.3       1 <0>         0.0933
     15 O2          0.9175   -0.1495    3.9210 O.3       1 <0>        -0.3647
     16 C13         0.2914    0.2897    2.7265 C.3       1 <0>         0.1354
     17 H2          0.4718    1.3574    2.6023 H         1 <0>         0.0869
     18 C14         0.8916   -0.4446    1.5354 C.3       1 <0>        -0.0774
     19 H3          0.7637   -1.5226    1.6334 H         1 <0>         0.0890
     20 C15         2.3555   -0.0838    1.2474 C.3       1 <0>        -0.1085
     21 C16         2.5139   -0.4327   -0.2563 C.3       1 <0>        -0.1459
     22 C17         1.0947   -0.3716   -0.8712 C.3       1 <0>         0.2608
     23 C18         0.6897   -1.7031   -1.3507 C.1       1 <0>        -0.1774
     24 C19         0.3666   -2.7650   -1.7331 C.1       1 <0>        -0.1038
     25 C20        -0.0274   -4.0604   -2.1995 C.2       1 <0>        -0.0224
     26 C21        -1.1142   -4.7226   -1.6326 C.2       1 <0>        -0.1432
     27 C22        -1.4552   -5.9437   -2.1006 C.2       1 <0>        -0.1679
     28 S1         -0.2396   -6.2137   -3.3791 S.3       1 <0>         0.0637
     29 C23         0.6512   -4.6754   -3.2171 C.2       1 <0>        -0.1530
     30 O3          1.0606    0.5725   -1.9434 O.3       1 <0>        -0.5358
     31 C24        -2.2215    1.6076    1.1190 C.ar      1 <0>        -0.1169
     32 C25        -2.6191    1.9888   -0.1494 C.ar      1 <0>        -0.0629
     33 C26        -2.8354    3.3225   -0.4354 C.ar      1 <0>        -0.1918
     34 C27        -2.6532    4.2815    0.5529 C.ar      1 <0>         0.2144
     35 C28        -2.2538    3.8951    1.8260 C.ar      1 <0>        -0.1956
     36 C29        -2.0446    2.5592    2.1067 C.ar      1 <0>        -0.0761
     37 N1         -2.8706    5.6313    0.2670 N.pl3     1 <0>        -0.6386
     38 C30        -3.4028    6.0268   -1.0393 C.3       1 <0>         0.0925
     39 C31        -2.5666    6.6514    1.2735 C.3       1 <0>         0.0887
     40 H4          1.1112    2.0220    0.1572 H         1 <0>         0.0508
     41 H5         -0.5418    1.9645   -0.5005 H         1 <0>         0.0763
     42 H6         -0.2831    1.9356    1.2603 H         1 <0>         0.0820
     43 H7         -1.7219   -0.2618   -0.6824 H         1 <0>         0.0797
     44 H8         -1.1819   -1.5764    0.3981 H         1 <0>         0.0702
     45 H9         -3.8503    0.3695    4.2123 H         1 <0>         0.0849
     46 H10        -3.6793   -0.7230    2.8142 H         1 <0>         0.0936
     47 H11        -4.7303   -1.7878    4.8759 H         1 <0>         0.0972
     48 H12        -3.2928   -2.6273    4.2527 H         1 <0>         0.1004
     49 H13        -1.1858   -0.9750    7.1181 H         1 <0>         0.1396
     50 H14         0.2242    1.2714    5.2567 H         1 <0>         0.0765
     51 H15         0.8168   -0.2455    5.9860 H         1 <0>         0.1184
     52 H16         2.5309    0.9786    1.4169 H         1 <0>         0.0759
     53 H17         3.0281   -0.6882    1.8560 H         1 <0>         0.0768
     54 H18         3.1639    0.2948   -0.7426 H         1 <0>         0.0840
     55 H19         2.9263   -1.4357   -0.3662 H         1 <0>         0.0747
     56 H20        -1.6758   -4.2670   -0.8305 H         1 <0>         0.1376
     57 H21        -2.2584   -6.5914   -1.7818 H         1 <0>         0.1915
     58 H22         1.5052   -4.3222   -3.7759 H         1 <0>         0.1897
     59 H23         1.6240    0.3367   -2.6931 H         1 <0>         0.3791
     60 H24        -2.7602    1.2427   -0.9174 H         1 <0>         0.1221
     61 H25        -3.1455    3.6195   -1.4263 H         1 <0>         0.1219
     62 H26        -2.1108    4.6383    2.5966 H         1 <0>         0.1218
     63 H27        -1.7384    2.2577    3.0975 H         1 <0>         0.1169
     64 H28        -4.4917    6.0484   -0.9967 H         1 <0>         0.0479
     65 H29        -3.0296    7.0175   -1.2988 H         1 <0>         0.0658
     66 H30        -3.0829    5.3088   -1.7945 H         1 <0>         0.0695
     67 H31        -2.2695    6.1669    2.2037 H         1 <0>         0.0774
     68 H32        -1.7528    7.2827    0.9167 H         1 <0>         0.0524
     69 H33        -3.4512    7.2636    1.4492 H         1 <0>         0.0552
@<TRIPOS>BOND
     1    1    2 1
     2    1   40 1
     3    1   41 1
     4    1   42 1
     5    2   18 1
     6    2   22 1
     7    2    3 1
     8    3    4 1
     9    3   43 1
    10    3   44 1
    11    4    5 1
    12    4    6 1
    13    4   31 1
    14    6   16 1
    15    6    7 2
    16    7   13 1
    17    7    8 1
    18    8    9 1
    19    8   45 1
    20    8   46 1
    21    9   10 1
    22    9   47 1
    23    9   48 1
    24   10   11 2
    25   10   12 1
    26   12   13 2
    27   12   49 1
    28   13   14 1
    29   14   15 1
    30   14   50 1
    31   14   51 1
    32   15   16 1
    33   16   17 1
    34   16   18 1
    35   18   19 1
    36   18   20 1
    37   20   21 1
    38   20   52 1
    39   20   53 1
    40   21   22 1
    41   21   54 1
    42   21   55 1
    43   22   23 1
    44   22   30 1
    45   23   24 3
    46   24   25 1
    47   25   29 2
    48   25   26 1
    49   26   27 2
    50   26   56 1
    51   27   28 1
    52   27   57 1
    53   28   29 1
    54   29   58 1
    55   30   59 1
    56   31   36 ar
    57   31   32 ar
    58   32   33 ar
    59   32   60 1
    60   33   34 ar
    61   33   61 1
    62   34   35 ar
    63   34   37 1
    64   35   36 ar
    65   35   62 1
    66   36   63 1
    67   37   38 1
    68   37   39 1
    69   38   64 1
    70   38   65 1
    71   38   66 1
    72   39   67 1
    73   39   68 1
    74   39   69 1
@<TRIPOS>MOLECULE
CHEMBL1215549
   42    43     0     0     0
SMALL
USER_CHARGES

@<TRIPOS>ATOM
      1 C1         -0.4276    1.6215   -0.1082 C.3       1 <0>        -0.1524
      2 C2         -0.2839    0.0983   -0.1210 C.3       1 <0>        -0.1232
      3 C3         -1.6646   -0.5455    0.0209 C.3       1 <0>        -0.0993
      4 C4         -1.5230   -2.0457    0.0082 C.2       1 <0>         0.1995
      5 C5         -1.3982   -2.7112    1.1701 C.2       1 <0>        -0.2314
      6 C6         -1.2635   -4.2070    1.2060 C.3       1 <0>         0.0830
      7 C7         -0.9001   -4.7418   -0.1500 C.2       1 <0>        -0.1418
      8 C8         -1.0434   -3.9979   -1.2576 C.2       1 <0>         0.2059
      9 N1         -1.5286   -2.7147   -1.1843 N.pl3     1 <0>        -0.6311
     10 C9         -0.6738   -4.5794   -2.5979 C.3       1 <0>        -0.1333
     11 C10        -0.3890   -6.0747   -0.2630 C.1       1 <0>         0.2629
     12 N2          0.0165   -7.1321   -0.3527 N.1       1 <0>        -0.4184
     13 C11        -2.5722   -4.8126    1.6437 C.ar      1 <0>        -0.0843
     14 C12        -3.7162   -4.5989    0.8975 C.ar      1 <0>        -0.0541
     15 C13        -4.9168   -5.1536    1.2977 C.ar      1 <0>        -0.1462
     16 C14        -4.9746   -5.9242    2.4470 C.ar      1 <0>         0.1153
     17 C15        -3.8292   -6.1386    3.1939 C.ar      1 <0>        -0.1449
     18 C16        -2.6270   -5.5868    2.7889 C.ar      1 <0>        -0.0029
     19 Cl1        -1.1885   -5.8601    3.7216 Cl        1 <0>        -0.0484
     20 F1         -6.1485   -6.4659    2.8391 F         1 <0>        -0.1310
     21 C17        -1.3933   -1.9873    2.3843 C.2       1 <0>         0.5332
     22 O1         -0.3403   -1.7470    2.9451 O.2       1 <0>        -0.4914
     23 O2         -2.5562   -1.5627    2.9215 O.3       1 <0>        -0.3473
     24 C18        -2.4766   -0.8369    4.1499 C.3       1 <0>         0.0296
     25 H1          0.5560    2.0801   -0.2093 H         1 <0>         0.0609
     26 H2         -1.0611    1.9337   -0.9384 H         1 <0>         0.0571
     27 H3         -0.8801    1.9358    0.8323 H         1 <0>         0.0566
     28 H4          0.1686   -0.2160   -1.0615 H         1 <0>         0.0681
     29 H5          0.3496   -0.2139    0.7092 H         1 <0>         0.0731
     30 H6         -2.1171   -0.2311    0.9614 H         1 <0>         0.0951
     31 H7         -2.2981   -0.2332   -0.8094 H         1 <0>         0.0909
     32 H8         -0.4861   -4.4802    1.9196 H         1 <0>         0.1019
     33 H9         -1.8727   -2.2803   -1.9804 H         1 <0>         0.4240
     34 H10        -1.5438   -5.0711   -3.0330 H         1 <0>         0.0941
     35 H11        -0.3385   -3.7812   -3.2602 H         1 <0>         0.0863
     36 H12         0.1283   -5.3063   -2.4698 H         1 <0>         0.0895
     37 H13        -3.6715   -3.9977    0.0014 H         1 <0>         0.1376
     38 H14        -5.8102   -4.9859    0.7145 H         1 <0>         0.1436
     39 H15        -3.8733   -6.7390    4.0905 H         1 <0>         0.1478
     40 H16        -1.8766    0.0612    4.0031 H         1 <0>         0.0611
     41 H17        -3.4794   -0.5554    4.4712 H         1 <0>         0.1027
     42 H18        -2.0131   -1.4629    4.9124 H         1 <0>         0.0618
@<TRIPOS>BOND
     1    1    2 1
     2    1   25 1
     3    1   26 1
     4    1   27 1
     5    2    3 1
     6    2   28 1
     7    2   29 1
     8    3    4 1
     9    3   30 1
    10    3   31 1
    11    4    9 1
    12    4    5 2
    13    5    6 1
    14    5   21 1
    15    6    7 1
    16    6   13 1
    17    6   32 1
    18    7    8 2
    19    7   11 1
    20    8    9 1
    21    8   10 1
    22    9   33 1
    23   10   34 1
    24   10   35 1
    25   10   36 1
    26   11   12 3
    27   13   18 ar
    28   13   14 ar
    29   14   15 ar
    30   14   37 1
    31   15   16 ar
    32   15   38 1
    33   16   17 ar
    34   16   20 1
    35   17   18 ar
    36   17   39 1
    37   18   19 1
    38   21   22 2
    39   21   23 1
    40   23   24 1
    41   24   40 1
    42   24   41 1
    43   24   42 1
@<TRIPOS>MOLECULE
CHEMBL1215549__1
   42    43     0     0     0
SMALL
USER_CHARGES

@<TRIPOS>ATOM
      1 C1         -0.3925    1.6134   -0.1053 C.3       1 <0>        -0.1529
      2 C2         -0.2591    0.0892   -0.1160 C.3       1 <0>        -0.1240
      3 C3         -1.6451   -0.5449    0.0175 C.3       1 <0>        -0.0997
      4 C4         -1.5137   -2.0462    0.0070 C.2       1 <0>         0.1975
      5 C5         -1.3982   -2.7112    1.1701 C.2       1 <0>        -0.2299
      6 C6         -1.2561   -4.2063    1.2073 C.3       1 <0>         0.0837
      7 C7         -1.6519   -4.8119   -0.1093 C.2       1 <0>        -0.1444
      8 C8         -1.7570   -4.0660   -1.2198 C.2       1 <0>         0.2067
      9 N1         -1.5189   -2.7164   -1.1848 N.pl3     1 <0>        -0.6284
     10 C9         -2.1480   -4.7186   -2.5207 C.3       1 <0>        -0.1320
     11 C10        -1.9224   -6.2163   -0.1809 C.1       1 <0>         0.2633
     12 N2         -2.1371   -7.3304   -0.2378 N.1       1 <0>        -0.4188
     13 C11         0.1779   -4.5610    1.5054 C.ar      1 <0>        -0.0782
     14 C12         1.1843   -4.1421    0.6551 C.ar      1 <0>        -0.0545
     15 C13         2.4996   -4.4667    0.9273 C.ar      1 <0>        -0.1464
     16 C14         2.8103   -5.2120    2.0524 C.ar      1 <0>         0.1147
     17 C15         1.8027   -5.6311    2.9040 C.ar      1 <0>        -0.1444
     18 C16         0.4870   -5.3007    2.6328 C.ar      1 <0>         0.0006
     19 Cl1        -0.7768   -5.8206    3.7034 Cl        1 <0>        -0.0519
     20 F1          4.0960   -5.5303    2.3185 F         1 <0>        -0.1315
     21 C17        -1.4104   -1.9875    2.3844 C.2       1 <0>         0.5306
     22 O1         -0.3643   -1.7347    2.9525 O.2       1 <0>        -0.4844
     23 O2         -2.5821   -1.5770    2.9136 O.3       1 <0>        -0.3519
     24 C18        -2.5197   -0.8506    4.1426 C.3       1 <0>         0.0299
     25 H1          0.5949    2.0652   -0.2004 H         1 <0>         0.0609
     26 H2         -1.0184    1.9292   -0.9399 H         1 <0>         0.0571
     27 H3         -0.8489    1.9316    0.8320 H         1 <0>         0.0566
     28 H4          0.1973   -0.2290   -1.0533 H         1 <0>         0.0670
     29 H5          0.3669   -0.2266    0.7186 H         1 <0>         0.0746
     30 H6         -2.1015   -0.2267    0.9548 H         1 <0>         0.0952
     31 H7         -2.2710   -0.2291   -0.8171 H         1 <0>         0.0923
     32 H8         -1.8952   -4.6080    1.9936 H         1 <0>         0.0998
     33 H9         -1.3496   -2.2357   -2.0101 H         1 <0>         0.4228
     34 H10        -3.2330   -4.7022   -2.6238 H         1 <0>         0.0956
     35 H11        -1.6959   -4.1749   -3.3502 H         1 <0>         0.0850
     36 H12        -1.7978   -5.7508   -2.5290 H         1 <0>         0.0889
     37 H13         0.9423   -3.5612   -0.2225 H         1 <0>         0.1352
     38 H14         3.2852   -4.1394    0.2625 H         1 <0>         0.1426
     39 H15         2.0440   -6.2127    3.7815 H         1 <0>         0.1473
     40 H16        -1.9296    0.0547    4.0000 H         1 <0>         0.0610
     41 H17        -3.5281   -0.5813    4.4570 H         1 <0>         0.1026
     42 H18        -2.0540   -1.4712    4.9082 H         1 <0>         0.0620
@<TRIPOS>BOND
     1    1    2 1
     2    1   25 1
     3    1   26 1
     4    1   27 1
     5    2    3 1
     6    2   28 1
     7    2   29 1
     8    3    4 1
     9    3   30 1
    10    3   31 1
    11    4    9 1
    12    4    5 2
    13    5    6 1
    14    5   21 1
    15    6    7 1
    16    6   13 1
    17    6   32 1
    18    7    8 2
    19    7   11 1
    20    8    9 1
    21    8   10 1
    22    9   33 1
    23   10   34 1
    24   10   35 1
    25   10   36 1
    26   11   12 3
    27   13   18 ar
    28   13   14 ar
    29   14   15 ar
    30   14   37 1
    31   15   16 ar
    32   15   38 1
    33   16   17 ar
    34   16   20 1
    35   17   18 ar
    36   17   39 1
    37   18   19 1
    38   21   22 2
    39   21   23 1
    40   23   24 1
    41   24   40 1
    42   24   41 1
    43   24   42 1
@<TRIPOS>MOLECULE
CHEMBL230247
   54    57     0     0     0
SMALL
USER_CHARGES

@<TRIPOS>ATOM
      1 C1          0.1431    1.9036    0.7270 C.3       1 <0>         0.0785
      2 N1          0.1575    0.4468    0.5721 N.am      1 <0>        -0.5558
      3 C2         -0.4125   -0.3307    1.5137 C.2       1 <0>         0.5570
      4 O1         -0.9383    0.1749    2.4906 O.2       1 <0>        -0.5065
      5 C3         -0.3977   -1.7261    1.3626 C.2       1 <0>        -0.2615
      6 C4          0.1979   -2.2681    0.2577 C.2       1 <0>         0.4520
      7 N2          0.7669   -1.4380   -0.6774 N.am      1 <0>        -0.6471
      8 H1          1.1908   -1.8163   -1.4637 H         1 <0>         0.4299
      9 C5          0.7349   -0.1030   -0.5116 C.2       1 <0>         0.7010
     10 O2          1.2394    0.6170   -1.3515 O.2       1 <0>        -0.5397
     11 N3          0.2274   -3.6282    0.0847 N.pl3     1 <0>        -0.6588
     12 C6         -0.9862   -4.3600   -0.3032 C.3       1 <0>         0.1409
     13 C7         -0.6810   -5.1946   -1.5511 C.3       1 <0>        -0.1331
     14 C8          0.5314   -6.0878   -1.2785 C.3       1 <0>         0.0909
     15 C9          1.7507   -5.2157   -0.9706 C.3       1 <0>        -0.1686
     16 C10         1.4745   -4.3805    0.2779 C.3       1 <0>         0.1371
     17 O3          0.7992   -6.8913   -2.4295 O.3       1 <0>        -0.3092
     18 C11         1.4817   -8.0491   -2.2284 C.ar      1 <0>         0.1290
     19 C12         2.0373   -8.3215   -0.9867 C.ar      1 <0>        -0.2104
     20 C13         2.7302   -9.4994   -0.7848 C.ar      1 <0>        -0.0806
     21 C14         2.8707  -10.4063   -1.8190 C.ar      1 <0>        -0.1573
     22 C15         2.3184  -10.1369   -3.0576 C.ar      1 <0>        -0.0800
     23 C16         1.6192   -8.9632   -3.2629 C.ar      1 <0>        -0.1529
     24 C17        -1.0289   -2.6143    2.4037 C.3       1 <0>         0.0010
     25 C18        -0.0575   -2.8305    3.5353 C.ar      1 <0>        -0.0767
     26 C19         0.7661   -3.9407    3.5367 C.ar      1 <0>        -0.1184
     27 C20         1.6572   -4.1390    4.5747 C.ar      1 <0>        -0.1241
     28 C21         1.7250   -3.2268    5.6112 C.ar      1 <0>        -0.1231
     29 C22         0.9021   -2.1161    5.6094 C.ar      1 <0>        -0.1206
     30 C23         0.0140   -1.9156    4.5692 C.ar      1 <0>        -0.1049
     31 H2          0.6415    2.3645   -0.1258 H         1 <0>         0.1001
     32 H3         -0.8880    2.2534    0.7778 H         1 <0>         0.0809
     33 H4          0.6650    2.1767    1.6441 H         1 <0>         0.0804
     34 H5         -1.2922   -5.0176    0.5104 H         1 <0>         0.0759
     35 H6         -1.7851   -3.6519   -0.5236 H         1 <0>         0.0900
     36 H7         -1.5434   -5.8157   -1.7932 H         1 <0>         0.0892
     37 H8         -0.4633   -4.5312   -2.3881 H         1 <0>         0.0795
     38 H9          0.3222   -6.7337   -0.4257 H         1 <0>         0.0769
     39 H10         2.6191   -5.8519   -0.7995 H         1 <0>         0.0858
     40 H11         1.9455   -4.5522   -1.8131 H         1 <0>         0.0791
     41 H12         2.2987   -3.6861    0.4409 H         1 <0>         0.0829
     42 H13         1.3737   -5.0399    1.1400 H         1 <0>         0.0757
     43 H14         1.9284   -7.6132   -0.1788 H         1 <0>         0.1283
     44 H15         3.1629   -9.7120    0.1817 H         1 <0>         0.1248
     45 H16         3.4131  -11.3264   -1.6593 H         1 <0>         0.1241
     46 H17         2.4298  -10.8466   -3.8640 H         1 <0>         0.1295
     47 H18         1.1842   -8.7552   -4.2293 H         1 <0>         0.1298
     48 H19        -1.9327   -2.1400    2.7862 H         1 <0>         0.0878
     49 H20        -1.2842   -3.5745    1.9556 H         1 <0>         0.0849
     50 H21         0.7132   -4.6533    2.7269 H         1 <0>         0.1190
     51 H22         2.3002   -5.0067    4.5761 H         1 <0>         0.1187
     52 H23         2.4207   -3.3821    6.4225 H         1 <0>         0.1188
     53 H24         0.9548   -1.4037    6.4193 H         1 <0>         0.1200
     54 H25        -0.6263   -1.0459    4.5659 H         1 <0>         0.1300
@<TRIPOS>BOND
     1    1    2 1
     2    1   31 1
     3    1   32 1
     4    1   33 1
     5    2    9 am
     6    2    3 am
     7    3    4 2
     8    3    5 1
     9    5    6 2
    10    5   24 1
    11    6    7 1
    12    6   11 1
    13    7    8 1
    14    7    9 am
    15    9   10 2
    16   11   16 1
    17   11   12 1
    18   12   13 1
    19   12   34 1
    20   12   35 1
    21   13   14 1
    22   13   36 1
    23   13   37 1
    24   14   15 1
    25   14   17 1
    26   14   38 1
    27   15   16 1
    28   15   39 1
    29   15   40 1
    30   16   41 1
    31   16   42 1
    32   17   18 1
    33   18   23 ar
    34   18   19 ar
    35   19   20 ar
    36   19   43 1
    37   20   21 ar
    38   20   44 1
    39   21   22 ar
    40   21   45 1
    41   22   23 ar
    42   22   46 1
    43   23   47 1
    44   24   25 1
    45   24   48 1
    46   24   49 1
    47   25   30 ar
    48   25   26 ar
    49   26   27 ar
    50   26   50 1
    51   27   28 ar
    52   27   51 1
    53   28   29 ar
    54   28   52 1
    55   29   30 ar
    56   29   53 1
    57   30   54 1
@<TRIPOS>MOLECULE
CHEMBL336169
   48    52     0     0     0
SMALL
USER_CHARGES

@<TRIPOS>ATOM
      1 C1         -0.0184    1.5050    0.0103 C.3       1 <0>        -0.1193
      2 C2          0.0021   -0.0041    0.0020 C.2       1 <0>        -0.0627
      3 C3          0.0012   -0.5990   -1.1897 C.2       1 <0>        -0.1632
      4 C4         -0.0627   -2.0882   -1.3594 C.3       1 <0>         0.2130
      5 N1          0.3265   -2.7742   -0.1292 N.pl3     1 <0>        -0.7339
      6 C5          0.0884   -2.2024    1.1150 C.ar      1 <0>         0.2261
      7 C6          0.0246   -0.7944    1.2385 C.ar      1 <0>        -0.0643
      8 C7          0.0552   -0.2661    2.5212 C.ar      1 <0>        -0.0255
      9 C8         -0.3511   -1.0914    3.6136 C.ar      1 <0>        -0.0931
     10 C9         -0.3828   -2.4639    3.4593 C.ar      1 <0>        -0.0510
     11 C10        -0.1056   -3.0139    2.2216 C.ar      1 <0>        -0.1787
     12 C11        -0.7301   -0.4121    4.8702 C.ar      1 <0>        -0.0659
     13 C12        -1.1410   -1.1437    5.9816 C.ar      1 <0>        -0.1174
     14 C13        -1.4930   -0.4884    7.1468 C.ar      1 <0>         0.0802
     15 C14        -1.4393    0.8951    7.2099 C.ar      1 <0>        -0.1221
     16 C15        -1.0307    1.6306    6.1144 C.ar      1 <0>        -0.1017
     17 C16        -0.6690    0.9869    4.9423 C.ar      1 <0>         0.1082
     18 O1         -0.2417    1.7129    3.8722 O.3       1 <0>        -0.2308
     19 C17         0.5287    1.0520    2.9560 C.2       1 <0>         0.1086
     20 C18         1.7163    1.5722    2.5534 C.2       1 <0>        -0.0847
     21 C19         2.1327    2.8935    3.0226 C.2       1 <0>         0.0207
     22 C20         3.2943    3.5339    2.6925 C.2       1 <0>        -0.1896
     23 C21         3.2802    4.7702    3.3661 C.2       1 <0>        -0.2141
     24 C22         2.1295    4.8278    4.0658 C.2       1 <0>        -0.0342
     25 O2          1.4356    3.6957    3.8521 O.3       1 <0>        -0.1562
     26 F1         -1.8876   -1.1973    8.2271 F         1 <0>        -0.1361
     27 C23         0.8804   -2.5062   -2.4940 C.3       1 <0>        -0.1548
     28 C24        -1.4933   -2.4955   -1.7316 C.3       1 <0>        -0.1607
     29 H1          1.0042    1.8823    0.0026 H         1 <0>         0.0727
     30 H2         -0.5456    1.8661   -0.8727 H         1 <0>         0.0689
     31 H3         -0.5286    1.8566    0.9071 H         1 <0>         0.0681
     32 H4          0.0512    0.0273   -2.0747 H         1 <0>         0.1285
     33 H5          0.7570   -3.6521   -0.1815 H         1 <0>         0.4055
     34 H6         -0.6213   -3.1044    4.2947 H         1 <0>         0.1339
     35 H7         -0.0431   -4.0874    2.1137 H         1 <0>         0.1310
     36 H8         -1.1811   -2.2223    5.9368 H         1 <0>         0.1428
     37 H9         -1.7146    1.4017    8.1240 H         1 <0>         0.1462
     38 H10        -0.9925    2.7081    6.1729 H         1 <0>         0.1466
     39 H11         2.3536    1.0104    1.8865 H         1 <0>         0.1675
     40 H12         4.0722    3.1633    2.0414 H         1 <0>         0.1503
     41 H13         4.0473    5.5296    3.3292 H         1 <0>         0.1501
     42 H14         1.8146    5.6498    4.6916 H         1 <0>         0.2032
     43 H15         1.8997   -2.2091   -2.2473 H         1 <0>         0.0636
     44 H16         0.8381   -3.5878   -2.6219 H         1 <0>         0.0636
     45 H17         0.5738   -2.0187   -3.4195 H         1 <0>         0.0744
     46 H18        -1.7782   -2.0095   -2.6648 H         1 <0>         0.0674
     47 H19        -1.5425   -3.5773   -1.8555 H         1 <0>         0.0617
     48 H20        -2.1761   -2.1891   -0.9392 H         1 <0>         0.0572
@<TRIPOS>BOND
     1    1    2 1
     2    1   29 1
     3    1   30 1
     4    1   31 1
     5    2    7 1
     6    2    3 2
     7    3    4 1
     8    3   32 1
     9    4    5 1
    10    4   27 1
    11    4   28 1
    12    5    6 1
    13    5   33 1
    14    6   11 ar
    15    6    7 ar
    16    7    8 ar
    17    8   19 1
    18    8    9 ar
    19    9   10 ar
    20    9   12 1
    21   10   11 ar
    22   10   34 1
    23   11   35 1
    24   12   17 ar
    25   12   13 ar
    26   13   14 ar
    27   13   36 1
    28   14   15 ar
    29   14   26 1
    30   15   16 ar
    31   15   37 1
    32   16   17 ar
    33   16   38 1
    34   17   18 1
    35   18   19 1
    36   19   20 2
    37   20   21 1
    38   20   39 1
    39   21   25 1
    40   21   22 2
    41   22   23 1
    42   22   40 1
    43   23   24 2
    44   23   41 1
    45   24   25 1
    46   24   42 1
    47   27   43 1
    48   27   44 1
    49   27   45 1
    50   28   46 1
    51   28   47 1
    52   28   48 1
@<TRIPOS>MOLECULE
CHEMBL364015
   53    57     0     0     0
SMALL
USER_CHARGES

@<TRIPOS>ATOM
      1 C1         -0.0174    1.8733   -0.2304 C.3       1 <0>        -0.1530
      2 C2         -0.0965    0.3592   -0.0258 C.3       1 <0>        -0.0082
      3 C3         -1.5597   -0.0727   -0.2159 C.3       1 <0>        -0.0657
      4 C4         -2.2379   -0.7371    0.9603 C.2       1 <0>        -0.2070
      5 C5         -3.5322   -1.2149    1.1471 C.2       1 <0>         0.0676
      6 N1         -3.6265   -1.7029    2.3589 N.2       1 <0>        -0.2800
      7 N2         -2.3910   -1.5570    3.0010 N.pl3     1 <0>        -0.3220
      8 C6         -1.5285   -0.9591    2.1198 C.2       1 <0>         0.1081
      9 C7         -0.1155   -0.5849    2.2484 C.2       1 <0>        -0.1175
     10 C8          0.5607    0.0282    1.2967 C.2       1 <0>        -0.0558
     11 C9          2.0214    0.3669    1.4788 C.3       1 <0>        -0.0838
     12 C10         2.8070   -0.2547    0.3178 C.3       1 <0>        -0.1144
     13 C11         2.1922    0.1912   -1.0098 C.3       1 <0>        -0.1239
     14 C12         0.7490   -0.3060   -1.1125 C.3       1 <0>        -0.1045
     15 H1          0.7268   -1.3876   -0.9792 H         1 <0>         0.0809
     16 C13         0.1834    0.0504   -2.4887 C.3       1 <0>         0.1556
     17 H2          0.0720    1.1319   -2.5668 H         1 <0>         0.1204
     18 C14         1.1248   -0.4362   -3.5601 C.ar      1 <0>        -0.1774
     19 C15         2.0798    0.4161   -4.0953 C.ar      1 <0>        -0.0354
     20 C16         2.9247   -0.0732   -5.0777 C.ar      1 <0>        -0.1889
     21 C17         2.7887   -1.3889   -5.4905 C.ar      1 <0>         0.3084
     22 N3          1.8673   -2.1706   -4.9582 N.ar      1 <0>        -0.5074
     23 C18         1.0507   -1.7375   -4.0167 C.ar      1 <0>         0.1437
     24 F1          3.6073   -1.8770   -6.4481 F         1 <0>        -0.1100
     25 O1         -1.0915   -0.5731   -2.6557 O.3       1 <0>        -0.5353
     26 C19        -2.0898   -1.9525    4.3111 C.ar      1 <0>         0.1493
     27 C20        -0.8238   -2.4332    4.6185 C.ar      1 <0>        -0.1056
     28 C21        -0.5288   -2.8220    5.9104 C.ar      1 <0>        -0.1304
     29 C22        -1.4945   -2.7326    6.8990 C.ar      1 <0>         0.0965
     30 C23        -2.7578   -2.2539    6.5943 C.ar      1 <0>        -0.1316
     31 C24        -3.0550   -1.8587    5.3049 C.ar      1 <0>        -0.0837
     32 F2         -1.2040   -3.1135    8.1622 F         1 <0>        -0.1335
     33 H3          1.0272    2.1843   -0.2421 H         1 <0>         0.0646
     34 H4         -0.4856    2.1368   -1.1789 H         1 <0>         0.0653
     35 H5         -0.5375    2.3777    0.5839 H         1 <0>         0.0596
     36 H6         -2.1388    0.8116   -0.4819 H         1 <0>         0.0721
     37 H7         -1.5994   -0.7617   -1.0596 H         1 <0>         0.1196
     38 H8         -4.3259   -1.1875    0.4152 H         1 <0>         0.1902
     39 H9          0.3902   -0.8039    3.1771 H         1 <0>         0.1167
     40 H10         2.1513    1.4491    1.4729 H         1 <0>         0.0830
     41 H11         2.3783   -0.0415    2.4244 H         1 <0>         0.0749
     42 H12         3.8456    0.0726    0.3653 H         1 <0>         0.0712
     43 H13         2.7647   -1.3414    0.3910 H         1 <0>         0.0652
     44 H14         2.2047    1.2796   -1.0665 H         1 <0>         0.0747
     45 H15         2.7755   -0.2189   -1.8343 H         1 <0>         0.0682
     46 H16         2.1623    1.4375   -3.7541 H         1 <0>         0.1484
     47 H17         3.6794    0.5626   -5.5166 H         1 <0>         0.1516
     48 H18         0.3125   -2.4075   -3.6012 H         1 <0>         0.1628
     49 H19        -1.0621   -1.5395   -2.6384 H         1 <0>         0.3772
     50 H20        -0.0706   -2.5034    3.8478 H         1 <0>         0.1417
     51 H21         0.4556   -3.1963    6.1498 H         1 <0>         0.1467
     52 H22        -3.5097   -2.1853    7.3666 H         1 <0>         0.1467
     53 H23        -4.0388   -1.4809    5.0687 H         1 <0>         0.1443
@<TRIPOS>BOND
     1    1    2 1
     2    1   33 1
     3    1   34 1
     4    1   35 1
     5    2   10 1
     6    2   14 1
     7    2    3 1
     8    3    4 1
     9    3   36 1
    10    3   37 1
    11    4    8 2
    12    4    5 1
    13    5    6 2
    14    5   38 1
    15    6    7 1
    16    7    8 1
    17    7   26 1
    18    8    9 1
    19    9   10 2
    20    9   39 1
    21   10   11 1
    22   11   12 1
    23   11   40 1
    24   11   41 1
    25   12   13 1
    26   12   42 1
    27   12   43 1
    28   13   14 1
    29   13   44 1
    30   13   45 1
    31   14   15 1
    32   14   16 1
    33   16   17 1
    34   16   18 1
    35   16   25 1
    36   18   23 ar
    37   18   19 ar
    38   19   20 ar
    39   19   46 1
    40   20   21 ar
    41   20   47 1
    42   21   22 ar
    43   21   24 1
    44   22   23 ar
    45   23   48 1
    46   25   49 1
    47   26   31 ar
    48   26   27 ar
    49   27   28 ar
    50   27   50 1
    51   28   29 ar
    52   28   51 1
    53   29   30 ar
    54   29   32 1
    55   30   31 ar
    56   30   52 1
    57   31   53 1
@<TRIPOS>MOLECULE
CHEMBL1090477
   67    71     0     0     0
SMALL
USER_CHARGES

@<TRIPOS>ATOM
      1 C1         -0.0179    1.4678    0.0101 C.3       1 <0>        -0.0467
      2 C2          0.0021   -0.0041    0.0020 C.1       1 <0>        -0.1619
      3 C3          0.0180   -1.1779   -0.0044 C.1       1 <0>        -0.2164
      4 C4          0.0380   -2.6498   -0.0125 C.3       1 <0>         0.2547
      5 C5          0.7892   -3.1539    1.2199 C.3       1 <0>        -0.1445
      6 C6          0.0749   -2.6920    2.4943 C.3       1 <0>        -0.1063
      7 C7         -1.3506   -3.2400    2.4870 C.3       1 <0>        -0.0065
      8 C8         -2.0808   -2.8792    3.7496 C.ar      1 <0>        -0.0342
      9 C9         -1.3720   -2.8970    4.9447 C.ar      1 <0>        -0.1068
     10 C10        -1.9899   -2.5841    6.1343 C.ar      1 <0>        -0.0917
     11 C11        -3.3444   -2.2463    6.1390 C.ar      1 <0>        -0.1348
     12 C12        -4.0506   -2.2267    4.9392 C.ar      1 <0>        -0.0614
     13 C13        -3.4186   -2.5385    3.7448 C.ar      1 <0>        -0.0780
     14 C14        -4.2407   -2.4739    2.4843 C.3       1 <0>        -0.0814
     15 C15        -3.5394   -3.1870    1.3288 C.3       1 <0>        -0.1176
     16 C16        -2.0938   -2.6924    1.2698 C.3       1 <0>        -0.0742
     17 H1         -2.0814   -1.6028    1.2965 H         1 <0>         0.0804
     18 C17        -1.4002   -3.1779   -0.0016 C.3       1 <0>        -0.0983
     19 C18        -4.0243   -1.9124    7.4087 C.2       1 <0>         0.5618
     20 O1         -5.2038   -1.6189    7.4076 O.2       1 <0>        -0.5335
     21 N1         -3.3361   -1.9334    8.5673 N.am      1 <0>        -0.7242
     22 C19        -4.0097   -1.6024    9.8255 C.3       1 <0>         0.1603
     23 C20        -3.0258   -1.6998   10.9628 C.ar      1 <0>        -0.0659
     24 C21        -2.8437   -2.8939   11.6435 C.ar      1 <0>        -0.1547
     25 C22        -1.9325   -2.9453   12.6813 C.ar      1 <0>         0.1001
     26 N2         -1.2416   -1.8762   13.0259 N.ar      1 <0>        -0.4789
     27 C23        -1.3888   -0.7243   12.4011 C.ar      1 <0>         0.1002
     28 C24        -2.2770   -0.5989   11.3496 C.ar      1 <0>        -0.1550
     29 C25        -1.2933   -4.7656    2.3858 C.3       1 <0>        -0.0811
     30 C26        -0.5401   -5.3194    3.5678 C.ar      1 <0>        -0.0777
     31 C27         0.8300   -5.4889    3.4965 C.ar      1 <0>        -0.1207
     32 C28         1.5209   -5.9969    4.5807 C.ar      1 <0>        -0.1205
     33 C29         0.8418   -6.3351    5.7363 C.ar      1 <0>        -0.1226
     34 C30        -0.5282   -6.1648    5.8079 C.ar      1 <0>        -0.1190
     35 C31        -1.2185   -5.6527    4.7252 C.ar      1 <0>        -0.1031
     36 O2          0.7028   -3.1086   -1.1913 O.3       1 <0>        -0.5490
     37 H2          1.0047    1.8451    0.0024 H         1 <0>         0.0817
     38 H3         -0.5451    1.8289   -0.8729 H         1 <0>         0.0822
     39 H4         -0.5281    1.8193    0.9069 H         1 <0>         0.0820
     40 H5          0.8263   -4.2431    1.2006 H         1 <0>         0.0873
     41 H6          1.8050   -2.7587    1.2112 H         1 <0>         0.0704
     42 H7          0.6066   -3.0690    3.3680 H         1 <0>         0.0783
     43 H8          0.0473   -1.6028    2.5232 H         1 <0>         0.0688
     44 H9         -0.3245   -3.1596    4.9401 H         1 <0>         0.1280
     45 H10        -1.4305   -2.6002    7.0580 H         1 <0>         0.1208
     46 H11        -5.0988   -1.9665    4.9386 H         1 <0>         0.1341
     47 H12        -5.2061   -2.9475    2.6629 H         1 <0>         0.0796
     48 H13        -4.4005   -1.4298    2.2153 H         1 <0>         0.0787
     49 H14        -3.5532   -4.2636    1.4984 H         1 <0>         0.0739
     50 H15        -4.0459   -2.9551    0.3919 H         1 <0>         0.0744
     51 H16        -1.9338   -2.8027   -0.8749 H         1 <0>         0.0773
     52 H17        -1.3893   -4.2677   -0.0183 H         1 <0>         0.0856
     53 H18        -2.3948   -2.1675    8.5682 H         1 <0>         0.4017
     54 H19        -4.4028   -0.5873    9.7710 H         1 <0>         0.0835
     55 H20        -4.8294   -2.3010    9.9934 H         1 <0>         0.0837
     56 H21        -3.4070   -3.7727   11.3664 H         1 <0>         0.1379
     57 H22        -1.7848   -3.8716   13.2165 H         1 <0>         0.1592
     58 H23        -0.8055    0.1298   12.7119 H         1 <0>         0.1593
     59 H24        -2.3895    0.3459   10.8386 H         1 <0>         0.1379
     60 H25        -2.3064   -5.1676    2.3798 H         1 <0>         0.0795
     61 H26        -0.7841   -5.0498    1.4649 H         1 <0>         0.0868
     62 H27         1.3606   -5.2247    2.5937 H         1 <0>         0.1224
     63 H28         2.5912   -6.1300    4.5248 H         1 <0>         0.1198
     64 H29         1.3815   -6.7327    6.5831 H         1 <0>         0.1187
     65 H30        -1.0588   -6.4293    6.7106 H         1 <0>         0.1180
     66 H31        -2.2883   -5.5161    4.7824 H         1 <0>         0.1168
     67 H32         1.6192   -2.8096   -1.2676 H         1 <0>         0.3810
@<TRIPOS>BOND
     1    1    2 1
     2    1   37 1
     3    1   38 1
     4    1   39 1
     5    2    3 3
     6    3    4 1
     7    4   18 1
     8    4    5 1
     9    4   36 1
    10    5    6 1
    11    5   40 1
    12    5   41 1
    13    6    7 1
    14    6   42 1
    15    6   43 1
    16    7   16 1
    17    7    8 1
    18    7   29 1
    19    8   13 ar
    20    8    9 ar
    21    9   10 ar
    22    9   44 1
    23   10   11 ar
    24   10   45 1
    25   11   12 ar
    26   11   19 1
    27   12   13 ar
    28   12   46 1
    29   13   14 1
    30   14   15 1
    31   14   47 1
    32   14   48 1
    33   15   16 1
    34   15   49 1
    35   15   50 1
    36   16   17 1
    37   16   18 1
    38   18   51 1
    39   18   52 1
    40   19   20 2
    41   19   21 am
    42   21   22 1
    43   21   53 1
    44   22   23 1
    45   22   54 1
    46   22   55 1
    47   23   28 ar
    48   23   24 ar
    49   24   25 ar
    50   24   56 1
    51   25   26 ar
    52   25   57 1
    53   26   27 ar
    54   27   28 ar
    55   27   58 1
    56   28   59 1
    57   29   30 1
    58   29   60 1
    59   29   61 1
    60   30   35 ar
    61   30   31 ar
    62   31   32 ar
    63   31   62 1
    64   32   33 ar
    65   32   63 1
    66   33   34 ar
    67   33   64 1
    68   34   35 ar
    69   34   65 1
    70   35   66 1
    71   36   67 1
@<TRIPOS>MOLECULE
CHEMBL36564
   51    55     0     0     0
SMALL
USER_CHARGES

@<TRIPOS>ATOM
      1 C1         -0.1288    1.6382    0.9669 C.3       1 <0>        -0.1569
      2 C2         -0.1730    0.1163    0.8160 C.3       1 <0>        -0.1021
      3 H1         -1.1265   -0.2581    1.1886 H         1 <0>         0.1078
      4 C3         -0.0238   -0.2491   -0.6399 C.ar      1 <0>        -0.1219
      5 C4          1.1527   -0.7839   -1.1447 C.ar      1 <0>         0.2224
      6 C5          1.2519   -1.0974   -2.5002 C.ar      1 <0>        -0.1734
      7 C6          0.1861   -0.8788   -3.3472 C.ar      1 <0>        -0.0552
      8 C7         -0.9896   -0.3410   -2.8428 C.ar      1 <0>        -0.0767
      9 C8         -1.0988   -0.0450   -1.4820 C.ar      1 <0>        -0.0626
     10 C9         -2.4089    0.4676   -0.9434 C.3       1 <0>         0.1765
     11 H2         -2.2186    1.1002   -0.0764 H         1 <0>         0.1374
     12 O1         -3.0954    1.2256   -1.9376 O.3       1 <0>        -0.2972
     13 C10        -3.2015    0.7123   -3.1891 C.ar      1 <0>         0.1241
     14 C11        -2.1627   -0.0725   -3.7069 C.ar      1 <0>        -0.1019
     15 C12        -2.2469   -0.5796   -4.9960 C.ar      1 <0>        -0.0806
     16 C13        -3.3678   -0.3181   -5.7617 C.ar      1 <0>        -0.1412
     17 C14        -4.4006    0.4438   -5.2454 C.ar      1 <0>        -0.0879
     18 C15        -4.3211    0.9588   -3.9643 C.ar      1 <0>        -0.1414
     19 C16        -3.2669   -0.6998   -0.5285 C.ar      1 <0>        -0.0857
     20 C17        -3.9687   -1.4148   -1.4814 C.ar      1 <0>        -0.1179
     21 C18        -4.7561   -2.4857   -1.1023 C.ar      1 <0>        -0.0843
     22 C19        -4.8430   -2.8428    0.2301 C.ar      1 <0>        -0.1475
     23 C20        -4.1408   -2.1277    1.1851 C.ar      1 <0>         0.1037
     24 C21        -3.3475   -1.0587    0.8034 C.ar      1 <0>        -0.1440
     25 F1         -4.2253   -2.4755    2.4878 F         1 <0>        -0.1354
     26 N1          2.2595   -1.0397   -0.3297 N.pl3     1 <0>        -0.7322
     27 C22         2.3445   -0.4293    1.0035 C.3       1 <0>         0.1355
     28 C23         0.9552   -0.5014    1.6093 C.2       1 <0>         0.3675
     29 O2          0.7600   -1.0286    2.6781 O.2       1 <0>        -0.4279
     30 C24         3.3348   -1.2072    1.8725 C.3       1 <0>        -0.1493
     31 C25         2.7870    1.0303    0.8829 C.3       1 <0>        -0.1636
     32 H3          0.7564    2.0276    0.4640 H         1 <0>         0.0802
     33 H4         -1.0221    2.0738    0.5193 H         1 <0>         0.0754
     34 H5         -0.0892    1.8975    2.0248 H         1 <0>         0.0703
     35 H6          2.1696   -1.5137   -2.8889 H         1 <0>         0.1304
     36 H7          0.2656   -1.1247   -4.3958 H         1 <0>         0.1322
     37 H8         -1.4411   -1.1751   -5.3989 H         1 <0>         0.1290
     38 H9         -3.4372   -0.7094   -6.7659 H         1 <0>         0.1282
     39 H10        -5.2760    0.6379   -5.8475 H         1 <0>         0.1313
     40 H11        -5.1322    1.5522   -3.5689 H         1 <0>         0.1342
     41 H12        -3.9020   -1.1360   -2.5227 H         1 <0>         0.1362
     42 H13        -5.3039   -3.0435   -1.8475 H         1 <0>         0.1363
     43 H14        -5.4588   -3.6792    0.5262 H         1 <0>         0.1387
     44 H15        -2.7957   -0.5029    1.5470 H         1 <0>         0.1372
     45 H16         2.9703   -1.6200   -0.6442 H         1 <0>         0.4091
     46 H17         4.3198   -1.1889    1.4061 H         1 <0>         0.0723
     47 H18         3.3914   -0.7475    2.8592 H         1 <0>         0.0807
     48 H19         2.9987   -2.2393    1.9713 H         1 <0>         0.0685
     49 H20         2.2138    1.5199    0.0956 H         1 <0>         0.0764
     50 H21         2.6142    1.5418    1.8298 H         1 <0>         0.0713
     51 H22         3.8483    1.0691    0.6374 H         1 <0>         0.0742
@<TRIPOS>BOND
     1    1    2 1
     2    1   32 1
     3    1   33 1
     4    1   34 1
     5    2    3 1
     6    2   28 1
     7    2    4 1
     8    4    9 ar
     9    4    5 ar
    10    5    6 ar
    11    5   26 1
    12    6    7 ar
    13    6   35 1
    14    7    8 ar
    15    7   36 1
    16    8   14 1
    17    8    9 ar
    18    9   10 1
    19   10   11 1
    20   10   12 1
    21   10   19 1
    22   12   13 1
    23   13   18 ar
    24   13   14 ar
    25   14   15 ar
    26   15   16 ar
    27   15   37 1
    28   16   17 ar
    29   16   38 1
    30   17   18 ar
    31   17   39 1
    32   18   40 1
    33   19   24 ar
    34   19   20 ar
    35   20   21 ar
    36   20   41 1
    37   21   22 ar
    38   21   42 1
    39   22   23 ar
    40   22   43 1
    41   23   24 ar
    42   23   25 1
    43   24   44 1
    44   26   27 1
    45   26   45 1
    46   27   28 1
    47   27   30 1
    48   27   31 1
    49   28   29 2
    50   30   46 1
    51   30   47 1
    52   30   48 1
    53   31   49 1
    54   31   50 1
    55   31   51 1
@<TRIPOS>MOLECULE
CHEMBL402284
   64    68     0     0     0
SMALL
USER_CHARGES

@<TRIPOS>ATOM
      1 C1         -0.0187    1.5258    0.0104 C.3       1 <0>        -0.1588
      2 C2          0.0021   -0.0041    0.0020 C.3       1 <0>        -0.1152
      3 C3          0.7182   -0.4975   -1.2568 C.3       1 <0>        -0.1138
      4 C4          0.7390   -2.0273   -1.2652 C.3       1 <0>        -0.6302
      5 S1          1.5880   -2.6123   -2.7577 S.o2      1 <0>         2.6036
      6 O1          0.8185   -2.3031   -3.9115 O.2       1 <0>        -0.9489
      7 O2          2.9684   -2.2806   -2.6972 O.2       1 <0>        -0.9506
      8 N1          1.5454   -4.2644   -2.6516 N.pl3     1 <0>        -0.9989
      9 C5          2.6304   -4.9817   -1.9744 C.3       1 <0>         0.1135
     10 C6          2.7558   -6.3863   -2.5782 C.3       1 <0>        -0.0913
     11 C7          1.4322   -7.0969   -2.3922 C.2       1 <0>        -0.0653
     12 C8          1.4272   -8.4108   -2.1688 C.2       1 <0>        -0.1057
     13 C9          0.1187   -9.0718   -2.0380 C.2       1 <0>         0.1271
     14 C10        -1.0446   -8.4261   -2.4440 C.2       1 <0>        -0.2242
     15 C11        -2.1039   -9.2782   -2.2030 C.2       1 <0>         0.0686
     16 N2         -1.6341  -10.3943   -1.6905 N.2       1 <0>        -0.2847
     17 N3         -0.2359  -10.2938   -1.5876 N.pl3     1 <0>        -0.2964
     18 C12         0.6319  -11.2823   -1.1047 C.ar      1 <0>         0.1479
     19 C13         1.8975  -11.4268   -1.6576 C.ar      1 <0>        -0.1044
     20 C14         2.7513  -12.4016   -1.1803 C.ar      1 <0>        -0.1323
     21 C15         2.3461  -13.2348   -0.1509 C.ar      1 <0>         0.0993
     22 C16         1.0844  -13.0922    0.4019 C.ar      1 <0>        -0.1325
     23 C17         0.2297  -12.1149   -0.0687 C.ar      1 <0>        -0.0772
     24 F1          3.1827  -14.1881    0.3143 F         1 <0>        -0.1335
     25 C18        -1.0055   -7.0413   -3.0347 C.3       1 <0>        -0.0277
     26 C19         0.1685   -6.2776   -2.4177 C.3       1 <0>        -0.0220
     27 C20         0.4204   -5.0049   -3.2296 C.3       1 <0>         0.1347
     28 C21        -0.1937   -5.8669   -0.9891 C.3       1 <0>        -0.0698
     29 C22        -0.4077   -7.1008   -0.1507 C.ar      1 <0>        -0.0869
     30 C23        -1.6654   -7.6684   -0.0657 C.ar      1 <0>        -0.0646
     31 C24        -1.8628   -8.8001    0.7024 C.ar      1 <0>        -0.1479
     32 C25        -0.8004   -9.3656    1.3870 C.ar      1 <0>         0.0998
     33 C26         0.4588   -8.7962    1.3011 C.ar      1 <0>        -0.1572
     34 C27         0.6549   -7.6675    0.5281 C.ar      1 <0>        -0.0828
     35 F2         -0.9923  -10.4717    2.1385 F         1 <0>        -0.1426
     36 H1          1.0039    1.9031    0.0027 H         1 <0>         0.0572
     37 H2         -0.5459    1.8868   -0.8726 H         1 <0>         0.0574
     38 H3         -0.5289    1.8773    0.9072 H         1 <0>         0.0587
     39 H4          0.5293   -0.3651    0.8851 H         1 <0>         0.0660
     40 H5         -1.0205   -0.3814    0.0098 H         1 <0>         0.0663
     41 H6          0.1910   -0.1364   -2.1398 H         1 <0>         0.0793
     42 H7          1.7408   -0.1202   -1.2645 H         1 <0>         0.0790
     43 H8          1.2661   -2.3884   -0.3821 H         1 <0>         0.1321
     44 H9         -0.2836   -2.4046   -1.2575 H         1 <0>         0.1322
     45 H10         3.5666   -4.4408   -2.1121 H         1 <0>         0.0987
     46 H11         2.4067   -5.0608   -0.9106 H         1 <0>         0.0684
     47 H12         2.9873   -6.3111   -3.6407 H         1 <0>         0.0933
     48 H13         3.5449   -6.9377   -2.0669 H         1 <0>         0.0922
     49 H14         2.3480   -8.9691   -2.0872 H         1 <0>         0.1313
     50 H15        -3.1436   -9.0640   -2.4017 H         1 <0>         0.1842
     51 H16         2.2137  -10.7775   -2.4606 H         1 <0>         0.1403
     52 H17         3.7355  -12.5146   -1.6104 H         1 <0>         0.1463
     53 H18         0.7701  -13.7432    1.2043 H         1 <0>         0.1453
     54 H19        -0.7525  -12.0012    0.3656 H         1 <0>         0.1442
     55 H20        -0.8713   -7.1080   -4.1144 H         1 <0>         0.0791
     56 H21        -1.9374   -6.5219   -2.8112 H         1 <0>         0.0845
     57 H22        -0.4725   -4.3800   -3.2128 H         1 <0>         0.0879
     58 H23         0.6545   -5.2756   -4.2592 H         1 <0>         0.0783
     59 H24         0.6174   -5.2753   -0.5644 H         1 <0>         0.0806
     60 H25        -1.1079   -5.2735   -1.0023 H         1 <0>         0.0818
     61 H26        -2.4941   -7.2270   -0.5995 H         1 <0>         0.1280
     62 H27        -2.8455   -9.2432    0.7689 H         1 <0>         0.1288
     63 H28         1.2882   -9.2362    1.8349 H         1 <0>         0.1257
     64 H29         1.6379   -7.2258    0.4574 H         1 <0>         0.1237
@<TRIPOS>BOND
     1    1    2 1
     2    1   36 1
     3    1   37 1
     4    1   38 1
     5    2    3 1
     6    2   39 1
     7    2   40 1
     8    3    4 1
     9    3   41 1
    10    3   42 1
    11    4    5 1
    12    4   43 1
    13    4   44 1
    14    5    6 2
    15    5    7 2
    16    5    8 1
    17    8   27 1
    18    8    9 1
    19    9   10 1
    20    9   45 1
    21    9   46 1
    22   10   11 1
    23   10   47 1
    24   10   48 1
    25   11   26 1
    26   11   12 2
    27   12   13 1
    28   12   49 1
    29   13   17 1
    30   13   14 2
    31   14   15 1
    32   14   25 1
    33   15   16 2
    34   15   50 1
    35   16   17 1
    36   17   18 1
    37   18   23 ar
    38   18   19 ar
    39   19   20 ar
    40   19   51 1
    41   20   21 ar
    42   20   52 1
    43   21   22 ar
    44   21   24 1
    45   22   23 ar
    46   22   53 1
    47   23   54 1
    48   25   26 1
    49   25   55 1
    50   25   56 1
    51   26   27 1
    52   26   28 1
    53   27   57 1
    54   27   58 1
    55   28   29 1
    56   28   59 1
    57   28   60 1
    58   29   34 ar
    59   29   30 ar
    60   30   31 ar
    61   30   61 1
    62   31   32 ar
    63   31   62 1
    64   32   33 ar
    65   32   35 1
    66   33   34 ar
    67   33   63 1
    68   34   64 1
@<TRIPOS>MOLECULE
CHEMBL402284__1
   64    68     0     0     0
SMALL
USER_CHARGES

@<TRIPOS>ATOM
      1 C1         -0.0187    1.5258    0.0104 C.3       1 <0>        -0.1588
      2 C2          0.0021   -0.0041    0.0020 C.3       1 <0>        -0.1155
      3 C3          0.7182   -0.4975   -1.2568 C.3       1 <0>        -0.1146
      4 C4          0.7390   -2.0273   -1.2652 C.3       1 <0>        -0.6295
      5 S1          1.5880   -2.6123   -2.7577 S.o2      1 <0>         2.6035
      6 O1          0.8185   -2.3031   -3.9115 O.2       1 <0>        -0.9493
      7 O2          2.9684   -2.2806   -2.6972 O.2       1 <0>        -0.9493
      8 N1          1.5454   -4.2644   -2.6516 N.pl3     1 <0>        -0.9995
      9 C5          2.6304   -4.9817   -1.9744 C.3       1 <0>         0.1239
     10 C6          2.0812   -6.2931   -1.3986 C.3       1 <0>        -0.0947
     11 C7          1.5185   -7.1088   -2.5430 C.2       1 <0>        -0.0670
     12 C8          1.6185   -8.4372   -2.5034 C.2       1 <0>        -0.1045
     13 C9          1.0195   -9.1961   -3.6130 C.2       1 <0>         0.1256
     14 C10         0.1224   -8.5872   -4.4845 C.2       1 <0>        -0.2232
     15 C11        -0.2680   -9.5317   -5.4128 C.2       1 <0>         0.0688
     16 N2          0.3353  -10.6661   -5.1339 N.2       1 <0>        -0.2842
     17 N3          1.1426  -10.4841   -3.9977 N.pl3     1 <0>        -0.2962
     18 C12         1.9313  -11.4619   -3.3771 C.ar      1 <0>         0.1473
     19 C13         3.1459  -11.1132   -2.8015 C.ar      1 <0>        -0.1030
     20 C14         3.9217  -12.0783   -2.1903 C.ar      1 <0>        -0.1338
     21 C15         3.4892  -13.3934   -2.1512 C.ar      1 <0>         0.1000
     22 C16         2.2782  -13.7433   -2.7247 C.ar      1 <0>        -0.1338
     23 C17         1.4967  -12.7800   -3.3318 C.ar      1 <0>        -0.0804
     24 F1          4.2499  -14.3362   -1.5532 F         1 <0>        -0.1336
     25 C18        -0.2706   -7.1427   -4.3196 C.3       1 <0>        -0.0277
     26 C19         0.9084   -6.3797   -3.7113 C.3       1 <0>        -0.0165
     27 C20         0.4204   -5.0049   -3.2296 C.3       1 <0>         0.1230
     28 C21         1.9774   -6.1666   -4.7850 C.3       1 <0>        -0.0698
     29 C22         2.5040   -7.5027   -5.2417 C.ar      1 <0>        -0.0848
     30 C23         3.5856   -8.0752   -4.5987 C.ar      1 <0>        -0.0885
     31 C24         4.0691   -9.3007   -5.0163 C.ar      1 <0>        -0.1628
     32 C25         3.4698   -9.9551   -6.0791 C.ar      1 <0>         0.1025
     33 C26         2.3865   -9.3807   -6.7224 C.ar      1 <0>        -0.1464
     34 C27         1.9015   -8.1576   -6.2996 C.ar      1 <0>        -0.0645
     35 F2          3.9419  -11.1529   -6.4885 F         1 <0>        -0.1421
     36 H1          1.0039    1.9031    0.0027 H         1 <0>         0.0573
     37 H2         -0.5459    1.8868   -0.8726 H         1 <0>         0.0575
     38 H3         -0.5289    1.8773    0.9072 H         1 <0>         0.0588
     39 H4          0.5293   -0.3651    0.8851 H         1 <0>         0.0660
     40 H5         -1.0205   -0.3814    0.0098 H         1 <0>         0.0663
     41 H6          0.1910   -0.1364   -2.1398 H         1 <0>         0.0796
     42 H7          1.7408   -0.1202   -1.2645 H         1 <0>         0.0791
     43 H8          1.2661   -2.3884   -0.3821 H         1 <0>         0.1313
     44 H9         -0.2836   -2.4046   -1.2575 H         1 <0>         0.1322
     45 H10         3.4238   -5.2013   -2.6889 H         1 <0>         0.0761
     46 H11         3.0258   -4.3661   -1.1665 H         1 <0>         0.0842
     47 H12         2.8843   -6.8465   -0.9120 H         1 <0>         0.0919
     48 H13         1.2927   -6.0771   -0.6777 H         1 <0>         0.0913
     49 H14         2.1203   -8.9376   -1.6884 H         1 <0>         0.1302
     50 H15        -0.9540   -9.3665   -6.2304 H         1 <0>         0.1845
     51 H16         3.4837  -10.0878   -2.8320 H         1 <0>         0.1444
     52 H17         4.8666  -11.8075   -1.7428 H         1 <0>         0.1457
     53 H18         1.9427  -14.7694   -2.6935 H         1 <0>         0.1458
     54 H19         0.5503  -13.0525   -3.7750 H         1 <0>         0.1436
     55 H20        -0.5183   -6.7178   -5.2923 H         1 <0>         0.0857
     56 H21        -1.1330   -7.0719   -3.6568 H         1 <0>         0.0775
     57 H22        -0.3549   -5.1350   -2.4746 H         1 <0>         0.0719
     58 H23         0.0147   -4.4479   -4.0741 H         1 <0>         0.1018
     59 H24         1.5406   -5.6391   -5.6330 H         1 <0>         0.0843
     60 H25         2.7949   -5.5759   -4.3716 H         1 <0>         0.0824
     61 H26         4.0532   -7.5644   -3.7699 H         1 <0>         0.1250
     62 H27         4.9144   -9.7475   -4.5140 H         1 <0>         0.1274
     63 H28         1.9184   -9.8901   -7.5517 H         1 <0>         0.1285
     64 H29         1.0537   -7.7115   -6.7983 H         1 <0>         0.1286
@<TRIPOS>BOND
     1    1    2 1
     2    1   36 1
     3    1   37 1
     4    1   38 1
     5    2    3 1
     6    2   39 1
     7    2   40 1
     8    3    4 1
     9    3   41 1
    10    3   42 1
    11    4    5 1
    12    4   43 1
    13    4   44 1
    14    5    6 2
    15    5    7 2
    16    5    8 1
    17    8   27 1
    18    8    9 1
    19    9   10 1
    20    9   45 1
    21    9   46 1
    22   10   11 1
    23   10   47 1
    24   10   48 1
    25   11   26 1
    26   11   12 2
    27   12   13 1
    28   12   49 1
    29   13   17 1
    30   13   14 2
    31   14   15 1
    32   14   25 1
    33   15   16 2
    34   15   50 1
    35   16   17 1
    36   17   18 1
    37   18   23 ar
    38   18   19 ar
    39   19   20 ar
    40   19   51 1
    41   20   21 ar
    42   20   52 1
    43   21   22 ar
    44   21   24 1
    45   22   23 ar
    46   22   53 1
    47   23   54 1
    48   25   26 1
    49   25   55 1
    50   25   56 1
    51   26   27 1
    52   26   28 1
    53   27   57 1
    54   27   58 1
    55   28   29 1
    56   28   59 1
    57   28   60 1
    58   29   34 ar
    59   29   30 ar
    60   30   31 ar
    61   30   61 1
    62   31   32 ar
    63   31   62 1
    64   32   33 ar
    65   32   35 1
    66   33   34 ar
    67   33   63 1
    68   34   64 1
@<TRIPOS>MOLECULE
CHEMBL257461
   65    70     0     0     0
SMALL
USER_CHARGES

@<TRIPOS>ATOM
      1 C1         -1.8539    0.2772    1.8393 C.ar      1 <0>        -0.0629
      2 C2         -1.0022    0.8728    0.9278 C.ar      1 <0>        -0.1412
      3 C3          0.0679    0.1631    0.4158 C.ar      1 <0>        -0.0191
      4 C4          0.2866   -1.1420    0.8157 C.ar      1 <0>        -0.6752
      5 C5         -0.5646   -1.7372    1.7279 C.ar      1 <0>        -0.0220
      6 C6         -1.6355   -1.0280    2.2388 C.ar      1 <0>        -0.1388
      7 S1          1.6499   -2.0470    0.1622 S.o2      1 <0>         2.6871
      8 O1          1.2940   -3.4211    0.2278 O.2       1 <0>        -0.9569
      9 O2          2.0129   -1.4113   -1.0557 O.2       1 <0>        -0.9542
     10 N1          2.9208   -1.8370    1.2028 N.pl3     1 <0>        -0.9790
     11 C7          3.8737   -0.7445    0.9821 C.3       1 <0>         0.0636
     12 C8          5.2370   -1.1440    1.5607 C.3       1 <0>        -0.0879
     13 C9          5.0567   -1.4208    3.0380 C.2       1 <0>        -0.0215
     14 C10         6.0431   -1.1147    3.8804 C.2       1 <0>        -0.1427
     15 C11         5.8468   -1.4406    5.3022 C.2       1 <0>         0.1228
     16 C12         4.8329   -2.3074    5.6966 C.2       1 <0>        -0.2336
     17 C13         4.8896   -2.4220    7.0713 C.2       1 <0>         0.0716
     18 N2          5.8850   -1.6843    7.5115 N.2       1 <0>        -0.2921
     19 N3          6.5110   -1.0654    6.4158 N.pl3     1 <0>        -0.3057
     20 C14         7.6222   -0.2134    6.4697 C.ar      1 <0>         0.1427
     21 C15         8.5615   -0.2303    5.4471 C.ar      1 <0>        -0.1020
     22 C16         9.6559    0.6101    5.5022 C.ar      1 <0>        -0.1306
     23 C17         9.8170    1.4694    6.5762 C.ar      1 <0>         0.1012
     24 C18         8.8813    1.4878    7.5971 C.ar      1 <0>        -0.1328
     25 C19         7.7825    0.6530    7.5430 C.ar      1 <0>        -0.0797
     26 F1         10.8886    2.2904    6.6285 F         1 <0>        -0.1323
     27 C20         3.9123   -2.9446    4.6893 C.3       1 <0>        -0.0283
     28 C21         3.7425   -1.9888    3.5061 C.3       1 <0>        -0.0258
     29 C22         3.0867   -2.7400    2.3452 C.3       1 <0>         0.1405
     30 C23         2.8160   -0.8419    3.9149 C.3       1 <0>         0.0647
     31 N4          3.0151    0.2958    3.0071 N.3       1 <0>        -0.5079
     32 C24         4.1000    1.1662    3.4833 C.3       1 <0>        -0.0145
     33 C25         4.3131    2.3025    2.4797 C.3       1 <0>         0.0586
     34 O3          3.0850    3.0143    2.3053 O.3       1 <0>        -0.3803
     35 C26         2.0068    2.1970    1.8416 C.3       1 <0>         0.0588
     36 C27         1.7703    1.0596    2.8387 C.3       1 <0>        -0.0041
     37 H1         -2.6873    0.8332    2.2427 H         1 <0>         0.1305
     38 H2         -1.1730    1.8924    0.6154 H         1 <0>         0.1335
     39 H3          0.7329    0.6281   -0.2969 H         1 <0>         0.1398
     40 H4         -0.3940   -2.7570    2.0400 H         1 <0>         0.1375
     41 H5         -2.3008   -1.4932    2.9512 H         1 <0>         0.1322
     42 H6          3.9722   -0.5573   -0.0872 H         1 <0>         0.0720
     43 H7          3.5164    0.1570    1.4798 H         1 <0>         0.1545
     44 H8          5.6012   -2.0409    1.0597 H         1 <0>         0.0865
     45 H9          5.9484   -0.3298    1.4228 H         1 <0>         0.0866
     46 H10         6.9519   -0.6459    3.5329 H         1 <0>         0.1352
     47 H11         4.2273   -3.0173    7.6824 H         1 <0>         0.1886
     48 H12         8.4364   -0.9005    4.6095 H         1 <0>         0.1426
     49 H13        10.3868    0.5970    4.7072 H         1 <0>         0.1482
     50 H14         9.0089    2.1583    8.4340 H         1 <0>         0.1471
     51 H15         7.0507    0.6708    8.3370 H         1 <0>         0.1441
     52 H16         4.3439   -3.8833    4.3420 H         1 <0>         0.0837
     53 H17         2.9421   -3.1335    5.1488 H         1 <0>         0.0861
     54 H18         2.1113   -3.1128    2.6580 H         1 <0>         0.0813
     55 H19         3.7200   -3.5787    2.0562 H         1 <0>         0.0753
     56 H20         1.7795   -1.1745    3.8587 H         1 <0>         0.0800
     57 H21         3.0447   -0.5363    4.9359 H         1 <0>         0.0560
     58 H22         3.8324    1.5834    4.4541 H         1 <0>         0.0433
     59 H23         5.0180    0.5858    3.5764 H         1 <0>         0.1101
     60 H24         5.0774    2.9823    2.8565 H         1 <0>         0.0978
     61 H25         4.6328    1.8884    1.5235 H         1 <0>         0.0629
     62 H26         1.1030    2.8005    1.7568 H         1 <0>         0.0985
     63 H27         2.2594    1.7798    0.8668 H         1 <0>         0.0610
     64 H28         0.9877    0.4015    2.4612 H         1 <0>         0.0985
     65 H29         1.4655    1.4751    3.7992 H         1 <0>         0.0461
@<TRIPOS>BOND
     1    1    6 ar
     2    1    2 ar
     3    1   37 1
     4    2    3 ar
     5    2   38 1
     6    3    4 ar
     7    3   39 1
     8    4    5 ar
     9    4    7 1
    10    5    6 ar
    11    5   40 1
    12    6   41 1
    13    7    8 2
    14    7    9 2
    15    7   10 1
    16   10   29 1
    17   10   11 1
    18   11   12 1
    19   11   42 1
    20   11   43 1
    21   12   13 1
    22   12   44 1
    23   12   45 1
    24   13   28 1
    25   13   14 2
    26   14   15 1
    27   14   46 1
    28   15   19 1
    29   15   16 2
    30   16   17 1
    31   16   27 1
    32   17   18 2
    33   17   47 1
    34   18   19 1
    35   19   20 1
    36   20   25 ar
    37   20   21 ar
    38   21   22 ar
    39   21   48 1
    40   22   23 ar
    41   22   49 1
    42   23   24 ar
    43   23   26 1
    44   24   25 ar
    45   24   50 1
    46   25   51 1
    47   27   28 1
    48   27   52 1
    49   27   53 1
    50   28   29 1
    51   28   30 1
    52   29   54 1
    53   29   55 1
    54   30   31 1
    55   30   56 1
    56   30   57 1
    57   31   36 1
    58   31   32 1
    59   32   33 1
    60   32   58 1
    61   32   59 1
    62   33   34 1
    63   33   60 1
    64   33   61 1
    65   34   35 1
    66   35   36 1
    67   35   62 1
    68   35   63 1
    69   36   64 1
    70   36   65 1
@<TRIPOS>MOLECULE
CHEMBL257461__1
   66    71     0     0     0
SMALL
USER_CHARGES

@<TRIPOS>ATOM
      1 C1         -1.3236   -0.0863    0.9271 C.ar      1 <0>        -0.0481
      2 C2         -0.4675    0.8513    0.3804 C.ar      1 <0>        -0.1352
      3 C3          0.8250    0.4943    0.0445 C.ar      1 <0>        -0.0407
      4 C4          1.2616   -0.8002    0.2557 C.ar      1 <0>        -0.7063
      5 C5          0.4057   -1.7376    0.8033 C.ar      1 <0>        -0.0238
      6 C6         -0.8872   -1.3809    1.1378 C.ar      1 <0>        -0.1293
      7 S1          2.9087   -1.2556   -0.1735 S.o2      1 <0>         2.6618
      8 O1          2.8473   -2.5884   -0.6625 O.2       1 <0>        -0.9127
      9 O2          3.4384   -0.1852   -0.9436 O.2       1 <0>        -0.9280
     10 N1          3.7844   -1.3066    1.2311 N.pl3     1 <0>        -1.0090
     11 C7          4.7406   -0.2375    1.5357 C.3       1 <0>        -0.0061
     12 C8          5.8590   -0.8025    2.4205 C.3       1 <0>        -0.0986
     13 C9          5.2278   -1.3467    3.6843 C.2       1 <0>        -0.1334
     14 C10         5.8942   -1.2526    4.8346 C.2       1 <0>        -0.0554
     15 C11         5.2661   -1.8335    6.0322 C.2       1 <0>         0.0878
     16 C12         4.1936   -2.7116    5.9140 C.2       1 <0>        -0.2257
     17 C13         3.8170   -3.0882    7.1878 C.2       1 <0>         0.0717
     18 N2          4.6114   -2.4947    8.0512 N.2       1 <0>        -0.2668
     19 N3          5.5402   -1.7082    7.3479 N.pl3     1 <0>        -0.2884
     20 C14         6.5641   -0.9346    7.9104 C.ar      1 <0>         0.1223
     21 C15         7.7775   -0.8002    7.2486 C.ar      1 <0>        -0.1005
     22 C16         8.7854   -0.0373    7.8047 C.ar      1 <0>        -0.1314
     23 C17         8.5867    0.5935    9.0215 C.ar      1 <0>         0.1143
     24 C18         7.3773    0.4607    9.6830 C.ar      1 <0>        -0.1315
     25 C19         6.3649   -0.2966    9.1276 C.ar      1 <0>        -0.0722
     26 F1          9.5741    1.3391    9.5640 F         1 <0>        -0.1257
     27 C20         3.6469   -3.1020    4.5661 C.3       1 <0>        -0.0253
     28 C21         3.8424   -1.9318    3.5995 C.3       1 <0>        -0.0305
     29 C22         3.5971   -2.4172    2.1689 C.3       1 <0>         0.1019
     30 C23         2.8160   -0.8419    3.9149 C.3       1 <0>        -0.0025
     31 N4          3.0151    0.2958    3.0071 N.4       1 <0>        -0.4101
     32 C24         4.1253    1.1247    3.4966 C.3       1 <0>        -0.0803
     33 C25         4.3309    2.3092    2.5490 C.3       1 <0>         0.0184
     34 O3          3.1156    3.0581    2.4598 O.3       1 <0>        -0.3448
     35 C26         1.9981    2.2871    2.0097 C.3       1 <0>         0.0233
     36 C27         1.7882    1.1027    2.9563 C.3       1 <0>        -0.0628
     37 H1         -2.3320    0.1938    1.1937 H         1 <0>         0.1439
     38 H2         -0.8085    1.8627    0.2154 H         1 <0>         0.1462
     39 H3          1.4937    1.2266   -0.3832 H         1 <0>         0.1502
     40 H4          0.7467   -2.7490    0.9679 H         1 <0>         0.1442
     41 H5         -1.5560   -2.1134    1.5653 H         1 <0>         0.1452
     42 H6          5.1673    0.1450    0.6086 H         1 <0>         0.1336
     43 H7          4.2304    0.5684    2.0633 H         1 <0>         0.1118
     44 H8          6.3767   -1.6037    1.8930 H         1 <0>         0.1217
     45 H9          6.5645   -0.0109    2.6727 H         1 <0>         0.1155
     46 H10         6.8585   -0.7688    4.8860 H         1 <0>         0.1504
     47 H11         3.0058   -3.7574    7.4337 H         1 <0>         0.1965
     48 H12         7.9330   -1.2922    6.2999 H         1 <0>         0.1404
     49 H13         9.7294    0.0672    7.2905 H         1 <0>         0.1520
     50 H14         7.2244    0.9532   10.6320 H         1 <0>         0.1522
     51 H15         5.4203   -0.3963    9.6416 H         1 <0>         0.1470
     52 H16         4.1809   -3.9765    4.1943 H         1 <0>         0.1043
     53 H17         2.5846   -3.3297    4.6545 H         1 <0>         0.1010
     54 H18         2.5790   -2.7970    2.0833 H         1 <0>         0.1063
     55 H19         4.3026   -3.2140    1.9337 H         1 <0>         0.1145
     56 H20         1.8103   -1.2407    3.7825 H         1 <0>         0.1375
     57 H21         2.9428   -0.5108    4.9456 H         1 <0>         0.1359
     58 H22         3.8906    1.4942    4.4948 H         1 <0>         0.1430
     59 H23         5.0360    0.5271    3.5346 H         1 <0>         0.1642
     60 H24         5.1254    2.9489    2.9331 H         1 <0>         0.1496
     61 H25         4.6050    1.9410    1.5603 H         1 <0>         0.0897
     62 H26         1.1043    2.9110    2.0035 H         1 <0>         0.1471
     63 H27         2.1923    1.9183    1.0026 H         1 <0>         0.0809
     64 H28         0.9640    0.4887    2.5932 H         1 <0>         0.1369
     65 H29         1.5543    1.4721    3.9547 H         1 <0>         0.1416
     66 H30         3.2320   -0.0454    2.0826 H         1 <0>         0.4201
@<TRIPOS>BOND
     1    1    6 ar
     2    1    2 ar
     3    1   37 1
     4    2    3 ar
     5    2   38 1
     6    3    4 ar
     7    3   39 1
     8    4    5 ar
     9    4    7 1
    10    5    6 ar
    11    5   40 1
    12    6   41 1
    13    7    8 2
    14    7    9 2
    15    7   10 1
    16   10   29 1
    17   10   11 1
    18   11   12 1
    19   11   42 1
    20   11   43 1
    21   12   13 1
    22   12   44 1
    23   12   45 1
    24   13   28 1
    25   13   14 2
    26   14   15 1
    27   14   46 1
    28   15   19 1
    29   15   16 2
    30   16   17 1
    31   16   27 1
    32   17   18 2
    33   17   47 1
    34   18   19 1
    35   19   20 1
    36   20   25 ar
    37   20   21 ar
    38   21   22 ar
    39   21   48 1
    40   22   23 ar
    41   22   49 1
    42   23   24 ar
    43   23   26 1
    44   24   25 ar
    45   24   50 1
    46   25   51 1
    47   27   28 1
    48   27   52 1
    49   27   53 1
    50   28   29 1
    51   28   30 1
    52   29   54 1
    53   29   55 1
    54   30   31 1
    55   30   56 1
    56   30   57 1
    57   31   36 1
    58   31   32 1
    59   31   66 1
    60   32   33 1
    61   32   58 1
    62   32   59 1
    63   33   34 1
    64   33   60 1
    65   33   61 1
    66   34   35 1
    67   35   36 1
    68   35   62 1
    69   35   63 1
    70   36   64 1
    71   36   65 1
@<TRIPOS>MOLECULE
CHEMBL426262
   45    48     0     0     0
SMALL
USER_CHARGES

@<TRIPOS>ATOM
      1 C1          0.0984    1.5890   -0.0333 C.3       1 <0>        -0.1463
      2 C2          0.0528    0.0600    0.0019 C.3       1 <0>        -0.0237
      3 C3         -1.4019   -0.3665    0.0865 C.3       1 <0>        -0.1087
      4 C4         -1.9407   -0.2548    1.5123 C.3       1 <0>        -0.1663
      5 C5         -1.0662   -1.1216    2.3969 C.2       1 <0>         0.3883
      6 O1         -1.5406   -1.9239    3.1736 O.2       1 <0>        -0.4573
      7 C6          0.3833   -0.9399    2.2645 C.2       1 <0>        -0.2433
      8 C7          0.8928   -0.4044    1.1528 C.2       1 <0>        -0.0183
      9 C8          2.3978   -0.2228    1.0750 C.3       1 <0>        -0.0969
     10 C9          2.8914   -0.7669   -0.2680 C.3       1 <0>        -0.1144
     11 C10         2.1220   -0.0819   -1.3999 C.3       1 <0>        -0.1282
     12 C11         0.6438   -0.4622   -1.3123 C.3       1 <0>        -0.1004
     13 C12        -0.1226    0.1421   -2.4907 C.3       1 <0>         0.1660
     14 C13         0.3455   -0.4947   -3.7738 C.2       1 <0>        -0.1321
     15 C14         1.3041    0.0875   -4.5084 C.2       1 <0>        -0.1493
     16 S1          1.5011   -1.0208   -5.8906 S.3       1 <0>         0.0355
     17 C15         0.2893   -2.2369   -5.4433 C.ar      1 <0>        -0.1122
     18 C16        -0.2343   -1.7512   -4.2252 C.ar      1 <0>        -0.0822
     19 C17        -1.2419   -2.5325   -3.6121 C.ar      1 <0>        -0.0780
     20 C18        -1.6656   -3.6919   -4.1824 C.ar      1 <0>        -0.1191
     21 C19        -1.1309   -4.1502   -5.3787 C.ar      1 <0>        -0.0930
     22 C20        -0.1521   -3.4112   -6.0137 C.ar      1 <0>        -0.0772
     23 O2          0.1165    1.5499   -2.5427 O.3       1 <0>        -0.5432
     24 H1          1.0990    1.9162   -0.3158 H         1 <0>         0.0601
     25 H2         -0.6236    1.9573   -0.7621 H         1 <0>         0.0913
     26 H3         -0.1477    1.9826    0.9529 H         1 <0>         0.0486
     27 H4         -1.9974    0.2684   -0.5695 H         1 <0>         0.0855
     28 H5         -1.4892   -1.4007   -0.2466 H         1 <0>         0.0665
     29 H6         -1.8932    0.7818    1.8461 H         1 <0>         0.1014
     30 H7         -2.9707   -0.6095    1.5479 H         1 <0>         0.0930
     31 H8          1.0413   -1.2520    3.0621 H         1 <0>         0.1335
     32 H9          2.6424    0.8366    1.1522 H         1 <0>         0.0856
     33 H10         2.8743   -0.7701    1.8884 H         1 <0>         0.0776
     34 H11         3.9565   -0.5616   -0.3751 H         1 <0>         0.0721
     35 H12         2.7206   -1.8426   -0.3103 H         1 <0>         0.0660
     36 H13         2.2253    0.9993   -1.3073 H         1 <0>         0.0731
     37 H14         2.5242   -0.4047   -2.3602 H         1 <0>         0.0724
     38 H15         0.5568   -1.5483   -1.3428 H         1 <0>         0.0830
     39 H16        -1.1894   -0.0408   -2.3623 H         1 <0>         0.1123
     40 H17         1.8311    1.0091   -4.3102 H         1 <0>         0.1872
     41 H18        -1.6792   -2.2046   -2.6806 H         1 <0>         0.1233
     42 H19        -2.4357   -4.2698   -3.6932 H         1 <0>         0.1290
     43 H20        -1.4826   -5.0743   -5.8132 H         1 <0>         0.1358
     44 H21         0.2726   -3.7570   -6.9445 H         1 <0>         0.1324
     45 H22         1.0472    1.7869   -2.6560 H         1 <0>         0.3706
@<TRIPOS>BOND
     1    1    2 1
     2    1   24 1
     3    1   25 1
     4    1   26 1
     5    2    8 1
     6    2   12 1
     7    2    3 1
     8    3    4 1
     9    3   27 1
    10    3   28 1
    11    4    5 1
    12    4   29 1
    13    4   30 1
    14    5    6 2
    15    5    7 1
    16    7    8 2
    17    7   31 1
    18    8    9 1
    19    9   10 1
    20    9   32 1
    21    9   33 1
    22   10   11 1
    23   10   34 1
    24   10   35 1
    25   11   12 1
    26   11   36 1
    27   11   37 1
    28   12   13 1
    29   12   38 1
    30   13   14 1
    31   13   23 1
    32   13   39 1
    33   14   18 1
    34   14   15 2
    35   15   16 1
    36   15   40 1
    37   16   17 1
    38   17   22 ar
    39   17   18 ar
    40   18   19 ar
    41   19   20 ar
    42   19   41 1
    43   20   21 ar
    44   20   42 1
    45   21   22 ar
    46   21   43 1
    47   22   44 1
    48   23   45 1
@<TRIPOS>MOLECULE
CHEMBL426262__1
   45    48     0     0     0
SMALL
USER_CHARGES

@<TRIPOS>ATOM
      1 C1         -0.0187    1.5258    0.0104 C.3       1 <0>        -0.1509
      2 C2          0.0021   -0.0041    0.0020 C.3       1 <0>        -0.0213
      3 C3         -1.4322   -0.4947   -0.0846 C.3       1 <0>        -0.1077
      4 C4         -2.1273   -0.4488    1.2756 C.3       1 <0>        -0.1697
      5 C5         -1.3156   -1.3036    2.2290 C.2       1 <0>         0.3869
      6 O1         -1.8344   -2.1483    2.9284 O.2       1 <0>        -0.4590
      7 C6          0.1300   -1.0563    2.2614 C.2       1 <0>        -0.2409
      8 C7          0.7323   -0.4665    1.2263 C.2       1 <0>        -0.0214
      9 C8          2.2269   -0.2186    1.3190 C.3       1 <0>        -0.0975
     10 C9          2.8880   -0.7007    0.0252 C.3       1 <0>        -0.1163
     11 C10         2.2158   -0.0155   -1.1669 C.3       1 <0>        -0.1241
     12 C11         0.7557   -0.4610   -1.2519 C.3       1 <0>        -0.0991
     13 C12         0.0952    0.1450   -2.4919 C.3       1 <0>         0.1639
     14 C13         0.8355   -0.3037   -3.7254 C.2       1 <0>        -0.1338
     15 C14         0.4098   -1.3678   -4.4211 C.2       1 <0>        -0.1494
     16 S1          1.5856   -1.4912   -5.7552 S.3       1 <0>         0.0357
     17 C15         2.6176   -0.1088   -5.3414 C.ar      1 <0>        -0.1131
     18 C16         2.0165    0.4173   -4.1771 C.ar      1 <0>        -0.0797
     19 C17         2.6315    1.5560   -3.6055 C.ar      1 <0>        -0.0773
     20 C18         3.7418    2.1026   -4.1689 C.ar      1 <0>        -0.1210
     21 C19         4.3108    1.5689   -5.3172 C.ar      1 <0>        -0.0931
     22 C20         3.7459    0.4515   -5.9002 C.ar      1 <0>        -0.0774
     23 O2         -1.2641   -0.2892   -2.5678 O.3       1 <0>        -0.5449
     24 H1          1.0039    1.9031    0.0027 H         1 <0>         0.0622
     25 H2         -0.5459    1.8868   -0.8726 H         1 <0>         0.0705
     26 H3         -0.5289    1.8773    0.9072 H         1 <0>         0.0612
     27 H4         -1.9812    0.1337   -0.7859 H         1 <0>         0.1105
     28 H5         -1.4354   -1.5212   -0.4511 H         1 <0>         0.0616
     29 H6         -2.1638    0.5784    1.6386 H         1 <0>         0.0983
     30 H7         -3.1378   -0.8481    1.1889 H         1 <0>         0.0917
     31 H8          0.7108   -1.3638    3.1184 H         1 <0>         0.1326
     32 H9          2.4130    0.8475    1.4492 H         1 <0>         0.0847
     33 H10         2.6367   -0.7692    2.1658 H         1 <0>         0.0772
     34 H11         3.9479   -0.4470    0.0411 H         1 <0>         0.0715
     35 H12         2.7721   -1.7809   -0.0626 H         1 <0>         0.0651
     36 H13         2.2589    1.0658   -1.0364 H         1 <0>         0.0719
     37 H14         2.7343   -0.2920   -2.0849 H         1 <0>         0.0774
     38 H15         0.7223   -1.5484   -1.3190 H         1 <0>         0.0773
     39 H16         0.1260    1.2325   -2.4251 H         1 <0>         0.1146
     40 H17        -0.4424   -2.0002   -4.2205 H         1 <0>         0.1877
     41 H18         2.2143    1.9963   -2.7119 H         1 <0>         0.1261
     42 H19         4.1912    2.9723   -3.7128 H         1 <0>         0.1285
     43 H20         5.1927    2.0199   -5.7475 H         1 <0>         0.1352
     44 H21         4.1785    0.0270   -6.7940 H         1 <0>         0.1319
     45 H22        -1.3676   -1.2487   -2.6295 H         1 <0>         0.3734
@<TRIPOS>BOND
     1    1    2 1
     2    1   24 1
     3    1   25 1
     4    1   26 1
     5    2    8 1
     6    2   12 1
     7    2    3 1
     8    3    4 1
     9    3   27 1
    10    3   28 1
    11    4    5 1
    12    4   29 1
    13    4   30 1
    14    5    6 2
    15    5    7 1
    16    7    8 2
    17    7   31 1
    18    8    9 1
    19    9   10 1
    20    9   32 1
    21    9   33 1
    22   10   11 1
    23   10   34 1
    24   10   35 1
    25   11   12 1
    26   11   36 1
    27   11   37 1
    28   12   13 1
    29   12   38 1
    30   13   14 1
    31   13   23 1
    32   13   39 1
    33   14   18 1
    34   14   15 2
    35   15   16 1
    36   15   40 1
    37   16   17 1
    38   17   22 ar
    39   17   18 ar
    40   18   19 ar
    41   19   20 ar
    42   19   41 1
    43   20   21 ar
    44   20   42 1
    45   21   22 ar
    46   21   43 1
    47   22   44 1
    48   23   45 1
@<TRIPOS>MOLECULE
CHEMBL426262__2
   45    48     0     0     0
SMALL
USER_CHARGES

@<TRIPOS>ATOM
      1 C1          0.8563    1.8230   -1.7598 C.3       1 <0>        -0.1440
      2 C2          0.7019    0.4916   -1.0219 C.3       1 <0>        -0.0318
      3 C3         -0.7289    0.3917   -0.5237 C.3       1 <0>        -0.1420
      4 C4         -0.9378    1.1982    0.7575 C.3       1 <0>        -0.1690
      5 C5          0.0373    0.6690    1.7908 C.2       1 <0>         0.3803
      6 O1         -0.3190    0.3737    2.9124 O.2       1 <0>        -0.4534
      7 C6          1.4339    0.5321    1.3636 C.2       1 <0>        -0.2695
      8 C7          1.7317    0.4398    0.0656 C.2       1 <0>         0.0148
      9 C8          3.1940    0.3174   -0.3225 C.3       1 <0>        -0.0917
     10 C9          3.3435   -0.8287   -1.3263 C.3       1 <0>        -0.1225
     11 C10         2.4035   -0.5851   -2.5092 C.3       1 <0>        -0.1191
     12 C11         0.9541   -0.6388   -2.0258 C.3       1 <0>        -0.1065
     13 C12         0.7088   -1.9874   -1.3461 C.3       1 <0>         0.1594
     14 C13        -0.7562   -2.3314   -1.4265 C.2       1 <0>        -0.1340
     15 C14        -1.4697   -2.5209   -0.3074 C.2       1 <0>        -0.1553
     16 S1         -3.1041   -2.8942   -0.9132 S.3       1 <0>         0.0457
     17 C15        -2.7837   -2.7853   -2.6547 C.ar      1 <0>        -0.1122
     18 C16        -1.4123   -2.4554   -2.7199 C.ar      1 <0>        -0.0815
     19 C17        -0.8598   -2.2949   -4.0123 C.ar      1 <0>        -0.0787
     20 C18        -1.6305   -2.4502   -5.1218 C.ar      1 <0>        -0.1193
     21 C19        -2.9782   -2.7701   -5.0304 C.ar      1 <0>        -0.0923
     22 C20        -3.5531   -2.9448   -3.7869 C.ar      1 <0>        -0.0763
     23 O2          1.1051   -1.9090    0.0246 O.3       1 <0>        -0.5454
     24 H1          1.8570    1.8877   -2.1870 H         1 <0>         0.0663
     25 H2          0.1161    1.8842   -2.5576 H         1 <0>         0.0650
     26 H3          0.7057    2.6455   -1.0606 H         1 <0>         0.0614
     27 H4         -1.4010    0.7685   -1.2947 H         1 <0>         0.0836
     28 H5         -0.9651   -0.6542   -0.3280 H         1 <0>         0.0889
     29 H6         -0.7400    2.2532    0.5676 H         1 <0>         0.1011
     30 H7         -1.9601    1.0703    1.1132 H         1 <0>         0.0939
     31 H8          2.2222    0.4923    2.1008 H         1 <0>         0.1369
     32 H9          3.5303    1.2486   -0.7784 H         1 <0>         0.0815
     33 H10         3.7910    0.1062    0.5648 H         1 <0>         0.0785
     34 H11         4.3732   -0.8699   -1.6815 H         1 <0>         0.0665
     35 H12         3.0854   -1.7715   -0.8439 H         1 <0>         0.0854
     36 H13         2.6072    0.3955   -2.9394 H         1 <0>         0.0728
     37 H14         2.5634   -1.3541   -3.2650 H         1 <0>         0.0690
     38 H15         0.2749   -0.5309   -2.8715 H         1 <0>         0.0943
     39 H16         1.2914   -2.7591   -1.8492 H         1 <0>         0.1159
     40 H17        -1.1340   -2.4620    0.7174 H         1 <0>         0.1879
     41 H18         0.1857   -2.0459   -4.1190 H         1 <0>         0.1270
     42 H19        -1.1838   -2.3213   -6.0966 H         1 <0>         0.1292
     43 H20        -3.5712   -2.8882   -5.9253 H         1 <0>         0.1359
     44 H21        -4.6007   -3.1932   -3.7021 H         1 <0>         0.1327
     45 H22         0.5326   -1.3506    0.5683 H         1 <0>         0.3709
@<TRIPOS>BOND
     1    1    2 1
     2    1   24 1
     3    1   25 1
     4    1   26 1
     5    2    8 1
     6    2   12 1
     7    2    3 1
     8    3    4 1
     9    3   27 1
    10    3   28 1
    11    4    5 1
    12    4   29 1
    13    4   30 1
    14    5    6 2
    15    5    7 1
    16    7    8 2
    17    7   31 1
    18    8    9 1
    19    9   10 1
    20    9   32 1
    21    9   33 1
    22   10   11 1
    23   10   34 1
    24   10   35 1
    25   11   12 1
    26   11   36 1
    27   11   37 1
    28   12   13 1
    29   12   38 1
    30   13   14 1
    31   13   23 1
    32   13   39 1
    33   14   18 1
    34   14   15 2
    35   15   16 1
    36   15   40 1
    37   16   17 1
    38   17   22 ar
    39   17   18 ar
    40   18   19 ar
    41   19   20 ar
    42   19   41 1
    43   20   21 ar
    44   20   42 1
    45   21   22 ar
    46   21   43 1
    47   22   44 1
    48   23   45 1
@<TRIPOS>MOLECULE
CHEMBL426262__3
   45    48     0     0     0
SMALL
USER_CHARGES

@<TRIPOS>ATOM
      1 C1         -0.3987    1.0769    0.6776 C.3       1 <0>        -0.1478
      2 C2          0.0133   -0.3765    0.4348 C.3       1 <0>        -0.0152
      3 C3         -1.1863   -1.2612    0.7239 C.3       1 <0>        -0.1066
      4 C4         -1.3657   -1.4964    2.2232 C.3       1 <0>        -0.1665
      5 C5         -0.0869   -2.1262    2.7398 C.2       1 <0>         0.3958
      6 O1         -0.1004   -3.1232    3.4310 O.2       1 <0>        -0.4618
      7 C6          1.1674   -1.4673    2.3600 C.2       1 <0>        -0.2368
      8 C7          1.2086   -0.6706    1.2896 C.2       1 <0>        -0.0047
      9 C8          2.5276   -0.0001    0.9515 C.3       1 <0>        -0.1022
     10 C9          2.8116   -0.1948   -0.5402 C.3       1 <0>        -0.1489
     11 C10         1.6221    0.3272   -1.3494 C.3       1 <0>        -0.1200
     12 C11         0.3880   -0.5222   -1.0442 C.3       1 <0>        -0.1003
     13 C12         0.7088   -1.9874   -1.3461 C.3       1 <0>         0.1606
     14 C13         1.5532   -2.0704   -2.5915 C.2       1 <0>        -0.1256
     15 C14         2.8892   -2.1371   -2.5007 C.2       1 <0>        -0.1660
     16 S1          3.4191   -2.2188   -4.2007 S.3       1 <0>         0.0375
     17 C15         1.8300   -2.1610   -4.9875 C.ar      1 <0>        -0.1116
     18 C16         0.9264   -2.0851   -3.9051 C.ar      1 <0>        -0.0816
     19 C17        -0.4492   -2.0293   -4.2307 C.ar      1 <0>        -0.0763
     20 C18        -0.8580   -2.0540   -5.5274 C.ar      1 <0>        -0.1196
     21 C19         0.0509   -2.1339   -6.5736 C.ar      1 <0>        -0.0926
     22 C20         1.4033   -2.1804   -6.2977 C.ar      1 <0>        -0.0776
     23 O2          1.4243   -2.5546   -0.2468 O.3       1 <0>        -0.5460
     24 H1          0.4259    1.7377    0.4104 H         1 <0>         0.0633
     25 H2         -1.2684    1.3152    0.0653 H         1 <0>         0.0639
     26 H3         -0.6470    1.2131    1.7302 H         1 <0>         0.0609
     27 H4         -2.0833   -0.7843    0.3289 H         1 <0>         0.0775
     28 H5         -1.0477   -2.2216    0.2273 H         1 <0>         0.0754
     29 H6         -1.5415   -0.5469    2.7288 H         1 <0>         0.0968
     30 H7         -2.2057   -2.1696    2.3947 H         1 <0>         0.0902
     31 H8          2.0630   -1.6373    2.9392 H         1 <0>         0.1295
     32 H9          2.4641    1.0648    1.1754 H         1 <0>         0.0871
     33 H10         3.3279   -0.4517    1.5377 H         1 <0>         0.0799
     34 H11         3.7100    0.3579   -0.8152 H         1 <0>         0.0775
     35 H12         2.9567   -1.2548   -0.7482 H         1 <0>         0.0796
     36 H13         1.4254    1.3646   -1.0787 H         1 <0>         0.0743
     37 H14         1.8513    0.2661   -2.4133 H         1 <0>         0.0718
     38 H15        -0.4489   -0.1998   -1.6638 H         1 <0>         0.0893
     39 H16        -0.2191   -2.5385   -1.4988 H         1 <0>         0.1078
     40 H17         3.4993   -2.1401   -1.6095 H         1 <0>         0.1960
     41 H18        -1.1829   -1.9666   -3.4406 H         1 <0>         0.1241
     42 H19        -1.9143   -2.0108   -5.7484 H         1 <0>         0.1290
     43 H20        -0.2967   -2.1525   -7.5959 H         1 <0>         0.1357
     44 H21         2.1208   -2.2434   -7.1025 H         1 <0>         0.1323
     45 H22         2.3351   -2.2401   -0.1661 H         1 <0>         0.3718
@<TRIPOS>BOND
     1    1    2 1
     2    1   24 1
     3    1   25 1
     4    1   26 1
     5    2    8 1
     6    2   12 1
     7    2    3 1
     8    3    4 1
     9    3   27 1
    10    3   28 1
    11    4    5 1
    12    4   29 1
    13    4   30 1
    14    5    6 2
    15    5    7 1
    16    7    8 2
    17    7   31 1
    18    8    9 1
    19    9   10 1
    20    9   32 1
    21    9   33 1
    22   10   11 1
    23   10   34 1
    24   10   35 1
    25   11   12 1
    26   11   36 1
    27   11   37 1
    28   12   13 1
    29   12   38 1
    30   13   14 1
    31   13   23 1
    32   13   39 1
    33   14   18 1
    34   14   15 2
    35   15   16 1
    36   15   40 1
    37   16   17 1
    38   17   22 ar
    39   17   18 ar
    40   18   19 ar
    41   19   20 ar
    42   19   41 1
    43   20   21 ar
    44   20   42 1
    45   21   22 ar
    46   21   43 1
    47   22   44 1
    48   23   45 1
@<TRIPOS>MOLECULE
CHEMBL426262__4
   45    48     0     0     0
SMALL
USER_CHARGES

@<TRIPOS>ATOM
      1 C1         -0.2007    1.5672   -0.5125 C.3       1 <0>        -0.1431
      2 C2         -0.1054    0.0618   -0.2562 C.3       1 <0>        -0.0176
      3 C3          0.6359   -0.5689   -1.4215 C.3       1 <0>        -0.1404
      4 C4          2.1479   -0.3875   -1.2930 C.3       1 <0>        -0.1792
      5 C5          2.5694   -1.0114    0.0229 C.2       1 <0>         0.3936
      6 O1          3.4993   -1.7877    0.0924 O.2       1 <0>        -0.4574
      7 C6          1.7947   -0.6272    1.2078 C.2       1 <0>        -0.2534
      8 C7          0.5579   -0.1433    1.0719 C.2       1 <0>        -0.0472
      9 C8         -0.1929    0.2551    2.3294 C.3       1 <0>        -0.0769
     10 C9         -1.5986   -0.3490    2.2768 C.3       1 <0>        -0.1879
     11 C10        -2.2829    0.0856    0.9787 C.3       1 <0>        -0.1136
     12 C11        -1.5297   -0.5029   -0.2145 C.3       1 <0>        -0.0996
     13 C12        -1.4698   -2.0240   -0.0605 C.3       1 <0>         0.1635
     14 C13        -0.3154   -2.3931    0.8353 C.2       1 <0>        -0.1465
     15 C14         0.9424   -2.3446    0.3736 C.2       1 <0>        -0.2016
     16 S1          1.9202   -2.8574    1.7731 S.3       1 <0>         0.1352
     17 C15         0.6113   -3.1230    2.9409 C.ar      1 <0>        -0.1556
     18 C16        -0.5543   -2.8000    2.2122 C.ar      1 <0>        -0.0603
     19 C17        -1.7847   -2.9158    2.9009 C.ar      1 <0>        -0.0769
     20 C18        -1.8189   -3.3150    4.2003 C.ar      1 <0>        -0.1233
     21 C19        -0.6576   -3.6222    4.8960 C.ar      1 <0>        -0.0962
     22 C20         0.5630   -3.5311    4.2564 C.ar      1 <0>        -0.0748
     23 O2         -1.2884   -2.6260   -1.3437 O.3       1 <0>        -0.5542
     24 H1          0.8004    1.9982   -0.5222 H         1 <0>         0.0597
     25 H2         -0.6810    1.7422   -1.4752 H         1 <0>         0.0631
     26 H3         -0.7894    2.0337    0.2774 H         1 <0>         0.0651
     27 H4          0.4070   -1.6341   -1.4539 H         1 <0>         0.0834
     28 H5          0.2997   -0.1059   -2.3493 H         1 <0>         0.0935
     29 H6          2.6526   -0.8886   -2.1190 H         1 <0>         0.0998
     30 H7          2.3952    0.6740   -1.2958 H         1 <0>         0.1117
     31 H8          2.2197   -0.7489    2.1931 H         1 <0>         0.1510
     32 H9          0.3347   -0.1228    3.2051 H         1 <0>         0.0675
     33 H10        -0.2640    1.3414    2.3838 H         1 <0>         0.0758
     34 H11        -1.5291   -1.4364    2.3056 H         1 <0>         0.1287
     35 H12        -2.1785    0.0028    3.1299 H         1 <0>         0.0615
     36 H13        -3.3119   -0.2739    0.9722 H         1 <0>         0.0666
     37 H14        -2.2773    1.1735    0.9114 H         1 <0>         0.0708
     38 H15        -2.0461   -0.2531   -1.1413 H         1 <0>         0.0938
     39 H16        -2.4004   -2.3815    0.3803 H         1 <0>         0.1059
     40 H17         1.2822   -2.0626   -0.6120 H         1 <0>         0.2256
     41 H18        -2.7070   -2.6844    2.3889 H         1 <0>         0.1272
     42 H19        -2.7715   -3.3944    4.7028 H         1 <0>         0.1286
     43 H20        -0.7088   -3.9368    5.9279 H         1 <0>         0.1337
     44 H21         1.4739   -3.7666    4.7866 H         1 <0>         0.1300
     45 H22        -0.3747   -2.6098   -1.6601 H         1 <0>         0.3706
@<TRIPOS>BOND
     1    1    2 1
     2    1   24 1
     3    1   25 1
     4    1   26 1
     5    2    8 1
     6    2   12 1
     7    2    3 1
     8    3    4 1
     9    3   27 1
    10    3   28 1
    11    4    5 1
    12    4   29 1
    13    4   30 1
    14    5    6 2
    15    5    7 1
    16    7    8 2
    17    7   31 1
    18    8    9 1
    19    9   10 1
    20    9   32 1
    21    9   33 1
    22   10   11 1
    23   10   34 1
    24   10   35 1
    25   11   12 1
    26   11   36 1
    27   11   37 1
    28   12   13 1
    29   12   38 1
    30   13   14 1
    31   13   23 1
    32   13   39 1
    33   14   18 1
    34   14   15 2
    35   15   16 1
    36   15   40 1
    37   16   17 1
    38   17   22 ar
    39   17   18 ar
    40   18   19 ar
    41   19   20 ar
    42   19   41 1
    43   20   21 ar
    44   20   42 1
    45   21   22 ar
    46   21   43 1
    47   22   44 1
    48   23   45 1
@<TRIPOS>MOLECULE
CHEMBL426262__5
   45    48     0     0     0
SMALL
USER_CHARGES

@<TRIPOS>ATOM
      1 C1         -2.3591    1.6635    0.5077 C.3       1 <0>        -0.1439
      2 C2         -1.4624    0.4258    0.4382 C.3       1 <0>        -0.0311
      3 C3         -0.4739    0.6229   -0.6973 C.3       1 <0>        -0.1376
      4 C4          0.6908    1.5211   -0.2821 C.3       1 <0>        -0.1686
      5 C5          1.3583    0.8737    0.9154 C.2       1 <0>         0.3813
      6 O1          2.5596    0.7112    0.9660 O.2       1 <0>        -0.4537
      7 C6          0.4761    0.4547    2.0098 C.2       1 <0>        -0.2705
      8 C7         -0.8212    0.2395    1.7798 C.2       1 <0>         0.0143
      9 C8         -1.6926   -0.1757    2.9512 C.3       1 <0>        -0.0914
     10 C9         -2.5388   -1.3811    2.5335 C.3       1 <0>        -0.1229
     11 C10        -3.3235   -1.0284    1.2677 C.3       1 <0>        -0.1191
     12 C11        -2.3475   -0.7834    0.1166 C.3       1 <0>        -0.1147
     13 C12        -1.4698   -2.0240   -0.0605 C.3       1 <0>         0.1601
     14 C13        -0.9306   -2.0613   -1.4672 C.2       1 <0>        -0.1339
     15 C14         0.3816   -2.2286   -1.6853 C.2       1 <0>        -0.1553
     16 S1          0.5153   -2.2044   -3.4627 S.3       1 <0>         0.0436
     17 C15        -1.1968   -1.9699   -3.8643 C.ar      1 <0>        -0.1120
     18 C16        -1.8300   -1.9220   -2.6031 C.ar      1 <0>        -0.0809
     19 C17        -3.2334   -1.7430   -2.6050 C.ar      1 <0>        -0.0829
     20 C18        -3.9181   -1.6304   -3.7744 C.ar      1 <0>        -0.1191
     21 C19        -3.2721   -1.6857   -5.0019 C.ar      1 <0>        -0.0926
     22 C20        -1.9014   -1.8496   -5.0426 C.ar      1 <0>        -0.0758
     23 O2         -0.3823   -1.9742    0.8653 O.3       1 <0>        -0.5458
     24 H1         -1.7559    2.5356    0.7600 H         1 <0>         0.0612
     25 H2         -2.8377    1.8202   -0.4590 H         1 <0>         0.0649
     26 H3         -3.1226    1.5166    1.2716 H         1 <0>         0.0662
     27 H4         -0.0832   -0.3482   -1.0013 H         1 <0>         0.0874
     28 H5         -0.9898    1.0777   -1.5430 H         1 <0>         0.0825
     29 H6          1.4035    1.6064   -1.1024 H         1 <0>         0.0933
     30 H7          0.3182    2.5085   -0.0097 H         1 <0>         0.1005
     31 H8          0.8789    0.3061    3.0008 H         1 <0>         0.1369
     32 H9         -1.0618   -0.4478    3.7975 H         1 <0>         0.0782
     33 H10        -2.3464    0.6503    3.2310 H         1 <0>         0.0812
     34 H11        -1.8874   -2.2318    2.3332 H         1 <0>         0.0875
     35 H12        -3.2337   -1.6336    3.3344 H         1 <0>         0.0656
     36 H13        -3.9888   -1.8528    1.0109 H         1 <0>         0.0688
     37 H14        -3.9116   -0.1277    1.4436 H         1 <0>         0.0722
     38 H15        -2.8980   -0.5950   -0.8051 H         1 <0>         0.1005
     39 H16        -2.0639   -2.9189    0.1248 H         1 <0>         0.1159
     40 H17         1.1702   -2.3489   -0.9572 H         1 <0>         0.1898
     41 H18        -3.7669   -1.6956   -1.6671 H         1 <0>         0.1309
     42 H19        -4.9892   -1.4951   -3.7476 H         1 <0>         0.1291
     43 H20        -3.8365   -1.5942   -5.9182 H         1 <0>         0.1357
     44 H21        -1.3870   -1.8950   -5.9911 H         1 <0>         0.1327
     45 H22         0.2770   -1.2968    0.6615 H         1 <0>         0.3716
@<TRIPOS>BOND
     1    1    2 1
     2    1   24 1
     3    1   25 1
     4    1   26 1
     5    2    8 1
     6    2   12 1
     7    2    3 1
     8    3    4 1
     9    3   27 1
    10    3   28 1
    11    4    5 1
    12    4   29 1
    13    4   30 1
    14    5    6 2
    15    5    7 1
    16    7    8 2
    17    7   31 1
    18    8    9 1
    19    9   10 1
    20    9   32 1
    21    9   33 1
    22   10   11 1
    23   10   34 1
    24   10   35 1
    25   11   12 1
    26   11   36 1
    27   11   37 1
    28   12   13 1
    29   12   38 1
    30   13   14 1
    31   13   23 1
    32   13   39 1
    33   14   18 1
    34   14   15 2
    35   15   16 1
    36   15   40 1
    37   16   17 1
    38   17   22 ar
    39   17   18 ar
    40   18   19 ar
    41   19   20 ar
    42   19   41 1
    43   20   21 ar
    44   20   42 1
    45   21   22 ar
    46   21   43 1
    47   22   44 1
    48   23   45 1
@<TRIPOS>MOLECULE
CHEMBL426262__6
   45    48     0     0     0
SMALL
USER_CHARGES

@<TRIPOS>ATOM
      1 C1         -0.0187    1.5258    0.0104 C.3       1 <0>        -0.1509
      2 C2          0.0021   -0.0041    0.0020 C.3       1 <0>        -0.0213
      3 C3          0.6314   -0.4600   -1.3023 C.3       1 <0>        -0.1078
      4 C4          2.1566   -0.3768   -1.2524 C.3       1 <0>        -0.1697
      5 C5          2.6201   -1.2374   -0.0935 C.2       1 <0>         0.3868
      6 O1          3.5045   -2.0581   -0.2217 O.2       1 <0>        -0.4590
      7 C6          1.9440   -1.0258    1.1909 C.2       1 <0>        -0.2409
      8 C7          0.7323   -0.4665    1.2263 C.2       1 <0>        -0.0213
      9 C8          0.0853   -0.2546    2.5829 C.3       1 <0>        -0.0975
     10 C9         -1.3545   -0.7720    2.5287 C.3       1 <0>        -0.1163
     11 C10        -2.0901   -0.0879    1.3741 C.3       1 <0>        -0.1241
     12 C11        -1.4481   -0.4980    0.0486 C.3       1 <0>        -0.0991
     13 C12        -2.2293    0.1059   -1.1201 C.3       1 <0>         0.1639
     14 C13        -3.6554   -0.3792   -1.0752 C.2       1 <0>        -0.1337
     15 C14        -4.0295   -1.4492   -1.7912 C.2       1 <0>        -0.1495
     16 S1         -5.7629   -1.6193   -1.4118 S.3       1 <0>         0.0357
     17 C15        -5.9375   -0.2472   -0.3008 C.ar      1 <0>        -0.1131
     18 C16        -4.6392    0.3055   -0.2494 C.ar      1 <0>        -0.0798
     19 C17        -4.4648    1.4378    0.5806 C.ar      1 <0>        -0.0772
     20 C18        -5.5079    1.9481    1.2882 C.ar      1 <0>        -0.1210
     21 C19        -6.7742    1.3828    1.2239 C.ar      1 <0>        -0.0931
     22 C20        -6.9878    0.2822    0.4174 C.ar      1 <0>        -0.0774
     23 O2         -1.6282   -0.2954   -2.3529 O.3       1 <0>        -0.5449
     24 H1          1.0039    1.9031    0.0027 H         1 <0>         0.0612
     25 H2         -0.5459    1.8868   -0.8726 H         1 <0>         0.0705
     26 H3         -0.5289    1.8773    0.9072 H         1 <0>         0.0622
     27 H4          0.3377   -1.4914   -1.4974 H         1 <0>         0.0616
     28 H5          0.2672    0.1715   -2.1127 H         1 <0>         0.1105
     29 H6          2.5788   -0.7520   -2.1846 H         1 <0>         0.0918
     30 H7          2.4662    0.6562   -1.0937 H         1 <0>         0.0983
     31 H8          2.4207   -1.3357    2.1091 H         1 <0>         0.1327
     32 H9          0.6422   -0.8027    3.3429 H         1 <0>         0.0772
     33 H10         0.0827    0.8083    2.8244 H         1 <0>         0.0847
     34 H11        -1.3484   -1.8502    2.3690 H         1 <0>         0.0651
     35 H12        -1.8589   -0.5446    3.4678 H         1 <0>         0.0715
     36 H13        -3.1372   -0.3907    1.3799 H         1 <0>         0.0774
     37 H14        -2.0237    0.9938    1.4908 H         1 <0>         0.0719
     38 H15        -1.4635   -1.5852   -0.0291 H         1 <0>         0.0773
     39 H16        -2.2129    1.1932   -1.0449 H         1 <0>         0.1145
     40 H17        -3.4247   -2.0620   -2.4432 H         1 <0>         0.1876
     41 H18        -3.4923    1.9019    0.6534 H         1 <0>         0.1261
     42 H19        -5.3474    2.8128    1.9149 H         1 <0>         0.1286
     43 H20        -7.5879    1.8048    1.7950 H         1 <0>         0.1352
     44 H21        -7.9680   -0.1673    0.3591 H         1 <0>         0.1319
     45 H22        -1.6083   -1.2527   -2.4874 H         1 <0>         0.3734
@<TRIPOS>BOND
     1    1    2 1
     2    1   24 1
     3    1   25 1
     4    1   26 1
     5    2    8 1
     6    2   12 1
     7    2    3 1
     8    3    4 1
     9    3   27 1
    10    3   28 1
    11    4    5 1
    12    4   29 1
    13    4   30 1
    14    5    6 2
    15    5    7 1
    16    7    8 2
    17    7   31 1
    18    8    9 1
    19    9   10 1
    20    9   32 1
    21    9   33 1
    22   10   11 1
    23   10   34 1
    24   10   35 1
    25   11   12 1
    26   11   36 1
    27   11   37 1
    28   12   13 1
    29   12   38 1
    30   13   14 1
    31   13   23 1
    32   13   39 1
    33   14   18 1
    34   14   15 2
    35   15   16 1
    36   15   40 1
    37   16   17 1
    38   17   22 ar
    39   17   18 ar
    40   18   19 ar
    41   19   20 ar
    42   19   41 1
    43   20   21 ar
    44   20   42 1
    45   21   22 ar
    46   21   43 1
    47   22   44 1
    48   23   45 1
@<TRIPOS>MOLECULE
CHEMBL426262__7
   45    48     0     0     0
SMALL
USER_CHARGES

@<TRIPOS>ATOM
      1 C1          0.2376    1.2506   -0.3463 C.3       1 <0>        -0.1438
      2 C2          0.0366   -0.2550   -0.1634 C.3       1 <0>        -0.0239
      3 C3          0.3534   -0.9367   -1.4826 C.3       1 <0>        -0.1088
      4 C4          1.8593   -1.0988   -1.6866 C.3       1 <0>        -0.1663
      5 C5          2.3918   -1.9021   -0.5162 C.2       1 <0>         0.3882
      6 O1          3.1124   -2.8647   -0.6780 O.2       1 <0>        -0.4572
      7 C6          1.9907   -1.4545    0.8219 C.2       1 <0>        -0.2432
      8 C7          0.8975   -0.7045    0.9779 C.2       1 <0>        -0.0182
      9 C8          0.5376   -0.2540    2.3820 C.3       1 <0>        -0.0970
     10 C9         -0.9483   -0.5324    2.6236 C.3       1 <0>        -0.1144
     11 C10        -1.7703    0.1424    1.5230 C.3       1 <0>        -0.1283
     12 C11        -1.4382   -0.4986    0.1753 C.3       1 <0>        -0.1004
     13 C12        -2.3187    0.1036   -0.9215 C.3       1 <0>         0.1661
     14 C13        -3.7554   -0.2825   -0.6810 C.2       1 <0>        -0.1322
     15 C14        -4.5777    0.5457   -0.0211 C.2       1 <0>        -0.1491
     16 S1         -6.1260   -0.3375    0.0048 S.3       1 <0>         0.0353
     17 C15        -5.6255   -1.7961   -0.8724 C.ar      1 <0>        -0.1122
     18 C16        -4.2659   -1.5555   -1.1680 C.ar      1 <0>        -0.0822
     19 C17        -3.5842   -2.5678   -1.8837 C.ar      1 <0>        -0.0780
     20 C18        -4.2273   -3.7046   -2.2620 C.ar      1 <0>        -0.1191
     21 C19        -5.5665   -3.9148   -1.9630 C.ar      1 <0>        -0.0930
     22 C20        -6.2647   -2.9548   -1.2572 C.ar      1 <0>        -0.0772
     23 O2         -2.1982    1.5274   -0.9009 O.3       1 <0>        -0.5435
     24 H1          1.3041    1.4742   -0.3733 H         1 <0>         0.0486
     25 H2         -0.2239    1.5679   -1.2815 H         1 <0>         0.0884
     26 H3         -0.2242    1.7826    0.4855 H         1 <0>         0.0609
     27 H4         -0.1152   -1.9208   -1.4959 H         1 <0>         0.0665
     28 H5         -0.0537   -0.3394   -2.2984 H         1 <0>         0.0855
     29 H6          2.0518   -1.6300   -2.6187 H         1 <0>         0.0930
     30 H7          2.3372   -0.1195   -1.7118 H         1 <0>         0.1015
     31 H8          2.5727   -1.7437    1.6845 H         1 <0>         0.1335
     32 H9          1.1353   -0.8060    3.1073 H         1 <0>         0.0777
     33 H10         0.7304    0.8139    2.4838 H         1 <0>         0.0856
     34 H11        -1.1255   -1.6077    2.6032 H         1 <0>         0.0660
     35 H12        -1.2409   -0.1322    3.5943 H         1 <0>         0.0722
     36 H13        -2.8323    0.0166    1.7336 H         1 <0>         0.0723
     37 H14        -1.5296    1.2050    1.4893 H         1 <0>         0.0733
     38 H15        -1.6232   -1.5709    0.2399 H         1 <0>         0.0830
     39 H16        -1.9986   -0.2741   -1.8926 H         1 <0>         0.1123
     40 H17        -4.3550    1.5166    0.3962 H         1 <0>         0.1873
     41 H18        -2.5416   -2.4360   -2.1325 H         1 <0>         0.1232
     42 H19        -3.6836   -4.4613   -2.8081 H         1 <0>         0.1290
     43 H20        -6.0568   -4.8254   -2.2740 H         1 <0>         0.1358
     44 H21        -7.3072   -3.1058   -1.0188 H         1 <0>         0.1324
     45 H22        -2.4665    1.9328   -0.0650 H         1 <0>         0.3705
@<TRIPOS>BOND
     1    1    2 1
     2    1   24 1
     3    1   25 1
     4    1   26 1
     5    2    8 1
     6    2   12 1
     7    2    3 1
     8    3    4 1
     9    3   27 1
    10    3   28 1
    11    4    5 1
    12    4   29 1
    13    4   30 1
    14    5    6 2
    15    5    7 1
    16    7    8 2
    17    7   31 1
    18    8    9 1
    19    9   10 1
    20    9   32 1
    21    9   33 1
    22   10   11 1
    23   10   34 1
    24   10   35 1
    25   11   12 1
    26   11   36 1
    27   11   37 1
    28   12   13 1
    29   12   38 1
    30   13   14 1
    31   13   23 1
    32   13   39 1
    33   14   18 1
    34   14   15 2
    35   15   16 1
    36   15   40 1
    37   16   17 1
    38   17   22 ar
    39   17   18 ar
    40   18   19 ar
    41   19   20 ar
    42   19   41 1
    43   20   21 ar
    44   20   42 1
    45   21   22 ar
    46   21   43 1
    47   22   44 1
    48   23   45 1
@<TRIPOS>MOLECULE
CHEMBL219084
   55    57     0     0     0
SMALL
USER_CHARGES

@<TRIPOS>ATOM
      1 C1         -2.9549    3.2195   -0.1294 C.3       1 <0>        -0.0908
      2 C2         -2.1335    1.9829   -0.3886 C.2       1 <0>        -0.2485
      3 C3         -2.7043    0.7597   -0.3335 C.2       1 <0>         0.1372
      4 N1         -1.9716   -0.3573   -0.5661 N.pl3     1 <0>        -0.4743
      5 C4         -0.6496   -0.2883   -0.8601 C.2       1 <0>         0.1319
      6 C5         -0.0199    0.9048   -0.9298 C.2       1 <0>        -0.2465
      7 C6         -0.7571    2.0900   -0.6981 C.2       1 <0>         0.3992
      8 O1         -0.2150    3.1840   -0.7598 O.2       1 <0>        -0.5198
      9 C7          1.4496    0.9731   -1.2566 C.3       1 <0>        -0.0868
     10 C8         -2.6226   -1.6680   -0.4977 C.3       1 <0>         0.0622
     11 C9         -3.1664   -2.0399   -1.8786 C.3       1 <0>         0.0792
     12 C10        -3.8463   -3.4087   -1.8072 C.3       1 <0>        -0.1524
     13 C11        -4.5009   -3.7239   -3.1536 C.3       1 <0>        -0.0182
     14 C12        -5.7047   -4.6421   -2.9330 C.3       1 <0>        -0.1364
     15 C13        -4.9656   -2.4231   -3.8117 C.3       1 <0>        -0.1526
     16 C14        -3.5024   -4.4111   -4.0490 C.ar      1 <0>        -0.0580
     17 C15        -2.4337   -5.0863   -3.4960 C.ar      1 <0>        -0.1210
     18 C16        -1.5119   -5.7200   -4.3082 C.ar      1 <0>        -0.1317
     19 C17        -1.6606   -5.6727   -5.6833 C.ar      1 <0>        -0.0846
     20 C18        -2.7247   -4.9970   -6.2375 C.ar      1 <0>        -0.1643
     21 C19        -3.6647   -4.3672   -5.4313 C.ar      1 <0>         0.1082
     22 O2         -4.6441   -3.7865   -6.1775 O.3       1 <0>        -0.2952
     23 C20        -4.1771   -3.6237   -7.5275 C.3       1 <0>         0.0484
     24 C21        -3.1440   -4.7618   -7.6757 C.3       1 <0>        -0.1121
     25 C22        -2.0136   -2.0949   -2.8829 C.3       1 <0>         0.4581
     26 F1         -1.0315   -2.9760   -2.4178 F         1 <0>        -0.1740
     27 F2         -2.4929   -2.5413   -4.1191 F         1 <0>        -0.1418
     28 F3         -1.4622   -0.8176   -3.0303 F         1 <0>        -0.1664
     29 O3         -4.1162   -1.0576   -2.2969 O.3       1 <0>        -0.5167
     30 H1         -2.3224    4.1022   -0.2239 H         1 <0>         0.0769
     31 H2         -3.7668    3.2750   -0.8545 H         1 <0>         0.0630
     32 H3         -3.3695    3.1758    0.8777 H         1 <0>         0.0621
     33 H4         -3.7553    0.6705   -0.1015 H         1 <0>         0.1578
     34 H5         -0.0942   -1.1969   -1.0401 H         1 <0>         0.1544
     35 H6          1.5786    1.0500   -2.3362 H         1 <0>         0.0650
     36 H7          1.8888    1.8468   -0.7750 H         1 <0>         0.0738
     37 H8          1.9445    0.0717   -0.8949 H         1 <0>         0.0596
     38 H9         -1.8981   -2.4173   -0.1786 H         1 <0>         0.1170
     39 H10        -3.4439   -1.6288    0.2178 H         1 <0>         0.1222
     40 H11        -3.1030   -4.1720   -1.5770 H         1 <0>         0.0994
     41 H12        -4.6076   -3.3960   -1.0272 H         1 <0>         0.0995
     42 H13        -6.3853   -4.1830   -2.2160 H         1 <0>         0.0600
     43 H14        -6.2232   -4.7952   -3.8795 H         1 <0>         0.0634
     44 H15        -5.3632   -5.6023   -2.5464 H         1 <0>         0.0561
     45 H16        -4.0983   -1.8101   -4.0570 H         1 <0>         0.0866
     46 H17        -5.5169   -2.6539   -4.7232 H         1 <0>         0.0609
     47 H18        -5.6124   -1.8788   -3.1237 H         1 <0>         0.0594
     48 H19        -2.3166   -5.1196   -2.4229 H         1 <0>         0.1309
     49 H20        -0.6784   -6.2498   -3.8712 H         1 <0>         0.1264
     50 H21        -0.9424   -6.1658   -6.3216 H         1 <0>         0.1224
     51 H22        -4.9960   -3.7444   -8.2366 H         1 <0>         0.1060
     52 H23        -3.6942   -2.6548   -7.6548 H         1 <0>         0.0750
     53 H24        -2.2943   -4.4503   -8.2832 H         1 <0>         0.0912
     54 H25        -3.6151   -5.6511   -8.0945 H         1 <0>         0.0894
     55 H26        -4.8761   -0.9682   -1.7055 H         1 <0>         0.3896
@<TRIPOS>BOND
     1    1    2 1
     2    1   30 1
     3    1   31 1
     4    1   32 1
     5    2    7 1
     6    2    3 2
     7    3    4 1
     8    3   33 1
     9    4    5 1
    10    4   10 1
    11    5    6 2
    12    5   34 1
    13    6    7 1
    14    6    9 1
    15    7    8 2
    16    9   35 1
    17    9   36 1
    18    9   37 1
    19   10   11 1
    20   10   38 1
    21   10   39 1
    22   11   12 1
    23   11   25 1
    24   11   29 1
    25   12   13 1
    26   12   40 1
    27   12   41 1
    28   13   14 1
    29   13   15 1
    30   13   16 1
    31   14   42 1
    32   14   43 1
    33   14   44 1
    34   15   45 1
    35   15   46 1
    36   15   47 1
    37   16   21 ar
    38   16   17 ar
    39   17   18 ar
    40   17   48 1
    41   18   19 ar
    42   18   49 1
    43   19   20 ar
    44   19   50 1
    45   20   24 1
    46   20   21 ar
    47   21   22 1
    48   22   23 1
    49   23   24 1
    50   23   51 1
    51   23   52 1
    52   24   53 1
    53   24   54 1
    54   25   26 1
    55   25   27 1
    56   25   28 1
    57   29   55 1
@<TRIPOS>MOLECULE
CHEMBL219084__1
   55    57     0     0     0
SMALL
USER_CHARGES

@<TRIPOS>ATOM
      1 C1          2.6460   -1.7580   -1.3240 C.3       1 <0>        -0.0917
      2 C2          1.8667   -3.0388   -1.1720 C.2       1 <0>        -0.2478
      3 C3          0.5512   -3.0060   -0.8664 C.2       1 <0>         0.1330
      4 N1         -0.1564   -4.1545   -0.7285 N.pl3     1 <0>        -0.4770
      5 C4          0.4256   -5.3684   -0.8909 C.2       1 <0>         0.1377
      6 C5          1.7376   -5.4689   -1.1968 C.2       1 <0>        -0.2485
      7 C6          2.5031   -4.2894   -1.3535 C.2       1 <0>         0.3995
      8 O1          3.6911   -4.3496   -1.6354 O.2       1 <0>        -0.5195
      9 C7          2.3772   -6.8217   -1.3752 C.3       1 <0>        -0.0857
     10 C8         -1.5814   -4.0822   -0.3961 C.3       1 <0>         0.0628
     11 C9         -2.4035   -4.0248   -1.6852 C.3       1 <0>         0.0781
     12 C10        -3.8804   -3.8240   -1.3397 C.3       1 <0>        -0.1521
     13 C11        -4.7142   -3.8649   -2.6219 C.3       1 <0>        -0.0164
     14 C12        -4.0956   -4.8648   -3.6009 C.3       1 <0>        -0.1496
     15 C13        -6.1434   -4.2963   -2.2873 C.3       1 <0>        -0.1374
     16 C14        -4.7370   -2.4952   -3.2501 C.ar      1 <0>        -0.0649
     17 C15        -4.1644   -1.4270   -2.5908 C.ar      1 <0>        -0.1463
     18 C16        -4.1798   -0.1664   -3.1580 C.ar      1 <0>        -0.1354
     19 C17        -4.7767    0.0246   -4.3920 C.ar      1 <0>        -0.0826
     20 C18        -5.3512   -1.0396   -5.0504 C.ar      1 <0>        -0.1667
     21 C19        -5.3307   -2.3135   -4.4964 C.ar      1 <0>         0.1047
     22 O2         -5.9250   -3.2191   -5.3210 O.3       1 <0>        -0.2979
     23 C20        -6.7578   -2.5246   -6.2651 C.3       1 <0>         0.0496
     24 C21        -6.0747   -1.1444   -6.3790 C.3       1 <0>        -0.1120
     25 C22        -1.9183   -2.8582   -2.5480 C.3       1 <0>         0.4611
     26 F1         -0.5727   -3.0507   -2.8787 F         1 <0>        -0.1623
     27 F2         -2.6818   -2.7948   -3.7186 F         1 <0>        -0.1407
     28 F3         -2.0569   -1.6621   -1.8356 F         1 <0>        -0.1673
     29 O3         -2.2450   -5.2485   -2.4061 O.3       1 <0>        -0.5173
     30 H1          3.6812   -1.9900   -1.5742 H         1 <0>         0.0779
     31 H2          2.2057   -1.1571   -2.1198 H         1 <0>         0.0620
     32 H3          2.6146   -1.2003   -0.3880 H         1 <0>         0.0626
     33 H4          0.0579   -2.0549   -0.7301 H         1 <0>         0.1549
     34 H5         -0.1659   -6.2645   -0.7742 H         1 <0>         0.1583
     35 H6          2.2997   -7.1254   -2.4192 H         1 <0>         0.0652
     36 H7          3.4277   -6.7675   -1.0896 H         1 <0>         0.0727
     37 H8          1.8667   -7.5508   -0.7459 H         1 <0>         0.0597
     38 H9         -1.8659   -4.9644    0.1773 H         1 <0>         0.1231
     39 H10        -1.7714   -3.1871    0.1961 H         1 <0>         0.1171
     40 H11        -4.2076   -4.6177   -0.6681 H         1 <0>         0.1010
     41 H12        -4.0113   -2.8582   -0.8518 H         1 <0>         0.0986
     42 H13        -3.9719   -5.8283   -3.1065 H         1 <0>         0.0581
     43 H14        -4.7509   -4.9809   -4.4642 H         1 <0>         0.0542
     44 H15        -3.1234   -4.4975   -3.9295 H         1 <0>         0.0897
     45 H16        -6.6144   -3.5387   -1.6608 H         1 <0>         0.0549
     46 H17        -6.7135   -4.4112   -3.2091 H         1 <0>         0.0664
     47 H18        -6.1206   -5.2463   -1.7534 H         1 <0>         0.0593
     48 H19        -3.7020   -1.5763   -1.6263 H         1 <0>         0.1585
     49 H20        -3.7280    0.6666   -2.6399 H         1 <0>         0.1253
     50 H21        -4.7915    1.0078   -4.8385 H         1 <0>         0.1215
     51 H22        -6.7632   -3.0385   -7.2264 H         1 <0>         0.1058
     52 H23        -7.7711   -2.4152   -5.8788 H         1 <0>         0.0745
     53 H24        -6.8087   -0.3457   -6.4869 H         1 <0>         0.0910
     54 H25        -5.3682   -1.1368   -7.2089 H         1 <0>         0.0890
     55 H26        -2.5331   -6.0323   -1.9186 H         1 <0>         0.3913
@<TRIPOS>BOND
     1    1    2 1
     2    1   30 1
     3    1   31 1
     4    1   32 1
     5    2    7 1
     6    2    3 2
     7    3    4 1
     8    3   33 1
     9    4    5 1
    10    4   10 1
    11    5    6 2
    12    5   34 1
    13    6    7 1
    14    6    9 1
    15    7    8 2
    16    9   35 1
    17    9   36 1
    18    9   37 1
    19   10   11 1
    20   10   38 1
    21   10   39 1
    22   11   12 1
    23   11   25 1
    24   11   29 1
    25   12   13 1
    26   12   40 1
    27   12   41 1
    28   13   14 1
    29   13   15 1
    30   13   16 1
    31   14   42 1
    32   14   43 1
    33   14   44 1
    34   15   45 1
    35   15   46 1
    36   15   47 1
    37   16   21 ar
    38   16   17 ar
    39   17   18 ar
    40   17   48 1
    41   18   19 ar
    42   18   49 1
    43   19   20 ar
    44   19   50 1
    45   20   24 1
    46   20   21 ar
    47   21   22 1
    48   22   23 1
    49   23   24 1
    50   23   51 1
    51   23   52 1
    52   24   53 1
    53   24   54 1
    54   25   26 1
    55   25   27 1
    56   25   28 1
    57   29   55 1
@<TRIPOS>MOLECULE
CHEMBL1086484
   56    60     0     0     0
SMALL
USER_CHARGES

@<TRIPOS>ATOM
      1 C1          2.4627    0.8329    6.2864 C.ar      1 <0>        -0.1070
      2 C2          2.7733   -0.5113    6.3734 C.ar      1 <0>        -0.1169
      3 C3          3.7283   -1.0557    5.5352 C.ar      1 <0>        -0.1049
      4 C4          4.3723   -0.2559    4.6097 C.ar      1 <0>        -0.0978
      5 C5          4.0611    1.0881    4.5222 C.ar      1 <0>        -0.1014
      6 C6          3.1071    1.6327    5.3613 C.ar      1 <0>        -0.1167
      7 C7          5.4141   -0.8491    3.6966 C.3       1 <0>        -0.5796
      8 S1          4.6194   -1.4436    2.1782 S.o2      1 <0>         2.5996
      9 O1          3.8276   -2.5902    2.4568 O.2       1 <0>        -0.9413
     10 O2          4.0798   -0.3505    1.4479 O.2       1 <0>        -0.9370
     11 N1          5.8623   -2.0064    1.2396 N.pl3     1 <0>        -1.0649
     12 C8          6.8492   -1.1281    0.7882 C.ar      1 <0>         0.1173
     13 C9          6.5704   -0.2439   -0.2478 C.ar      1 <0>        -0.0655
     14 C10         7.5434    0.6241   -0.6950 C.ar      1 <0>        -0.0976
     15 C11         8.8077    0.6149   -0.1076 C.ar      1 <0>         0.0267
     16 C12         9.0851   -0.2722    0.9309 C.ar      1 <0>        -0.1693
     17 C13         8.1072   -1.1349    1.3790 C.ar      1 <0>        -0.0709
     18 C14        10.4508   -0.2843    1.5678 C.3       1 <0>         0.5105
     19 F1         10.4624   -1.1957    2.6291 F         1 <0>        -0.1765
     20 F2         11.4052   -0.6629    0.6175 F         1 <0>        -0.1705
     21 F3         10.7527    0.9946    2.0480 F         1 <0>        -0.1681
     22 C15         9.8567    1.5480   -0.5876 C.ar      1 <0>        -0.1164
     23 C16        11.0578    1.0434   -1.1010 C.ar      1 <0>        -0.0527
     24 C17        12.0329    1.8861   -1.5466 C.ar      1 <0>        -0.1369
     25 C18        11.8432    3.2654   -1.4956 C.ar      1 <0>         0.1396
     26 C19        10.6393    3.7865   -0.9820 C.ar      1 <0>        -0.1762
     27 C20         9.6422    2.9163   -0.5318 C.ar      1 <0>        -0.0023
     28 C21        10.7526    5.2399   -1.0644 C.2       1 <0>         0.0938
     29 N2         11.9163    5.5203   -1.5787 N.2       1 <0>        -0.2447
     30 N3         12.6157    4.3416   -1.8572 N.pl3     1 <0>        -0.3563
     31 C22        13.8985    4.2704   -2.4155 C.ar      1 <0>         0.1547
     32 C23        14.7712    3.2627   -2.0263 C.ar      1 <0>        -0.1092
     33 C24        16.0354    3.1943   -2.5778 C.ar      1 <0>        -0.1272
     34 C25        16.4331    4.1296   -3.5186 C.ar      1 <0>         0.0948
     35 C26        15.5643    5.1352   -3.9082 C.ar      1 <0>        -0.1298
     36 C27        14.2972    5.2038   -3.3632 C.ar      1 <0>        -0.0875
     37 F4         17.6704    4.0611   -4.0566 F         1 <0>        -0.1335
     38 H1          1.7134    1.2572    6.9383 H         1 <0>         0.1289
     39 H2          2.2701   -1.1362    7.0964 H         1 <0>         0.1307
     40 H3          3.9714   -2.1057    5.6035 H         1 <0>         0.1309
     41 H4          4.5646    1.7130    3.7994 H         1 <0>         0.1304
     42 H5          2.8643    2.6829    5.2932 H         1 <0>         0.1306
     43 H6          6.1533   -0.0883    3.4459 H         1 <0>         0.1419
     44 H7          5.9061   -1.6819    4.1992 H         1 <0>         0.1451
     45 H8          5.9046   -2.9462    1.0034 H         1 <0>         0.4290
     46 H9          5.5910   -0.2374   -0.7029 H         1 <0>         0.1507
     47 H10         7.3266    1.3105   -1.5001 H         1 <0>         0.1479
     48 H11         8.3203   -1.8195    2.1867 H         1 <0>         0.1489
     49 H12        11.2137   -0.0245   -1.1441 H         1 <0>         0.1491
     50 H13        12.9546    1.4833   -1.9398 H         1 <0>         0.1335
     51 H14         8.7147    3.3067   -0.1400 H         1 <0>         0.1387
     52 H15        10.0048    5.9549   -0.7548 H         1 <0>         0.2063
     53 H16        14.4616    2.5334   -1.2924 H         1 <0>         0.1415
     54 H17        16.7146    2.4110   -2.2751 H         1 <0>         0.1472
     55 H18        15.8763    5.8636   -4.6419 H         1 <0>         0.1466
     56 H19        13.6183    5.9854   -3.6709 H         1 <0>         0.1436
@<TRIPOS>BOND
     1    1    6 ar
     2    1    2 ar
     3    1   38 1
     4    2    3 ar
     5    2   39 1
     6    3    4 ar
     7    3   40 1
     8    4    5 ar
     9    4    7 1
    10    5    6 ar
    11    5   41 1
    12    6   42 1
    13    7    8 1
    14    7   43 1
    15    7   44 1
    16    8    9 2
    17    8   10 2
    18    8   11 1
    19   11   12 1
    20   11   45 1
    21   12   17 ar
    22   12   13 ar
    23   13   14 ar
    24   13   46 1
    25   14   15 ar
    26   14   47 1
    27   15   16 ar
    28   15   22 1
    29   16   17 ar
    30   16   18 1
    31   17   48 1
    32   18   19 1
    33   18   20 1
    34   18   21 1
    35   22   27 ar
    36   22   23 ar
    37   23   24 ar
    38   23   49 1
    39   24   25 ar
    40   24   50 1
    41   25   30 1
    42   25   26 ar
    43   26   27 ar
    44   26   28 1
    45   27   51 1
    46   28   29 2
    47   28   52 1
    48   29   30 1
    49   30   31 1
    50   31   36 ar
    51   31   32 ar
    52   32   33 ar
    53   32   53 1
    54   33   34 ar
    55   33   54 1
    56   34   35 ar
    57   34   37 1
    58   35   36 ar
    59   35   55 1
    60   36   56 1
@<TRIPOS>MOLECULE
CHEMBL510216
   48    50     0     0     0
SMALL
USER_CHARGES

@<TRIPOS>ATOM
      1 C1         -0.0187    1.5258    0.0104 C.3       1 <0>        -0.1528
      2 C2          0.0021   -0.0041    0.0020 C.3       1 <0>        -0.1336
      3 C3         -1.4333   -0.5336    0.0129 C.3       1 <0>        -0.1158
      4 C4         -1.4126   -2.0635    0.0045 C.3       1 <0>        -0.0104
      5 C5         -0.6942   -2.5544    1.2596 C.3       1 <0>        -0.1058
      6 C6         -1.4160   -1.9993    2.4918 C.3       1 <0>        -0.1419
      7 C7         -2.8712   -2.4680    2.5010 C.3       1 <0>         0.2541
      8 C8         -3.5808   -1.9987    1.2268 C.3       1 <0>        -0.0972
      9 C9         -2.8516   -2.5768    0.0154 C.3       1 <0>        -0.0736
     10 H1         -2.8486   -3.6650    0.0786 H         1 <0>         0.0768
     11 C10        -3.5238   -2.1442   -1.2879 C.3       1 <0>        -0.1171
     12 C11        -2.9043   -2.9449   -2.4327 C.3       1 <0>        -0.0807
     13 C12        -1.4000   -2.9176   -2.3660 C.ar      1 <0>        -0.0564
     14 C13        -0.7020   -2.5329   -1.2331 C.ar      1 <0>        -0.0683
     15 C14         0.6859   -2.5425   -1.2294 C.ar      1 <0>        -0.0982
     16 C15         1.3885   -2.9569   -2.3413 C.ar      1 <0>        -0.1495
     17 C16         0.7009   -3.3669   -3.4742 C.ar      1 <0>         0.1017
     18 C17        -0.6985   -3.3179   -3.4951 C.ar      1 <0>        -0.1472
     19 O1          1.3833   -3.7733   -4.5769 O.3       1 <0>        -0.4996
     20 C18        -2.9106   -3.9379    2.5690 C.1       1 <0>        -0.2142
     21 C19        -2.9420   -5.1102    2.6232 C.1       1 <0>        -0.1649
     22 C20        -2.9813   -6.5801    2.6911 C.3       1 <0>        -0.0457
     23 O2         -3.5373   -1.9245    3.6424 O.3       1 <0>        -0.5495
     24 H2          1.0039    1.9031    0.0027 H         1 <0>         0.0529
     25 H3         -0.5459    1.8868   -0.8726 H         1 <0>         0.0527
     26 H4         -0.5289    1.8773    0.9072 H         1 <0>         0.0529
     27 H5          0.5123   -0.3556   -0.8948 H         1 <0>         0.0695
     28 H6          0.5293   -0.3651    0.8851 H         1 <0>         0.0626
     29 H7         -1.9435   -0.1821    0.9097 H         1 <0>         0.0759
     30 H8         -1.9605   -0.1726   -0.8702 H         1 <0>         0.0684
     31 H9         -0.7102   -3.6439    1.2870 H         1 <0>         0.0670
     32 H10         0.3374   -2.2025    1.2512 H         1 <0>         0.0749
     33 H11        -0.9164   -2.3530    3.3936 H         1 <0>         0.0684
     34 H12        -1.3870   -0.9099    2.4678 H         1 <0>         0.0864
     35 H13        -4.6129   -2.3490    1.2333 H         1 <0>         0.0748
     36 H14        -3.5628   -0.9099    1.1785 H         1 <0>         0.0856
     37 H15        -4.5936   -2.3461   -1.2345 H         1 <0>         0.0719
     38 H16        -3.3576   -1.0794   -1.4516 H         1 <0>         0.0741
     39 H17        -3.2458   -3.9783   -2.3715 H         1 <0>         0.0769
     40 H18        -3.2275   -2.5187   -3.3824 H         1 <0>         0.0774
     41 H19         1.2207   -2.2227   -0.3473 H         1 <0>         0.1283
     42 H20         2.4684   -2.9620   -2.3302 H         1 <0>         0.1273
     43 H21        -1.2375   -3.6267   -4.3785 H         1 <0>         0.1265
     44 H22         1.5762   -4.7208   -4.5930 H         1 <0>         0.3901
     45 H23        -4.0183   -6.9159    2.6978 H         1 <0>         0.0816
     46 H24        -2.4697   -6.9978    1.8240 H         1 <0>         0.0811
     47 H25        -2.4851   -6.9152    3.6020 H         1 <0>         0.0821
     48 H26        -3.1470   -2.1865    4.4874 H         1 <0>         0.3806
@<TRIPOS>BOND
     1    1    2 1
     2    1   24 1
     3    1   25 1
     4    1   26 1
     5    2    3 1
     6    2   27 1
     7    2   28 1
     8    3    4 1
     9    3   29 1
    10    3   30 1
    11    4    9 1
    12    4   14 1
    13    4    5 1
    14    5    6 1
    15    5   31 1
    16    5   32 1
    17    6    7 1
    18    6   33 1
    19    6   34 1
    20    7    8 1
    21    7   20 1
    22    7   23 1
    23    8    9 1
    24    8   35 1
    25    8   36 1
    26    9   10 1
    27    9   11 1
    28   11   12 1
    29   11   37 1
    30   11   38 1
    31   12   13 1
    32   12   39 1
    33   12   40 1
    34   13   18 ar
    35   13   14 ar
    36   14   15 ar
    37   15   16 ar
    38   15   41 1
    39   16   17 ar
    40   16   42 1
    41   17   18 ar
    42   17   19 1
    43   18   43 1
    44   19   44 1
    45   20   21 3
    46   21   22 1
    47   22   45 1
    48   22   46 1
    49   22   47 1
    50   23   48 1
@<TRIPOS>MOLECULE
CHEMBL366182
   58    61     0     0     0
SMALL
USER_CHARGES

@<TRIPOS>ATOM
      1 C1          0.0700    1.3514    0.7913 C.3       1 <0>        -0.1411
      2 C2          0.0341   -0.0644    0.2123 C.3       1 <0>        -0.0187
      3 C3          0.8978   -0.9892    1.0723 C.3       1 <0>        -0.1617
      4 C4         -1.4080   -0.5754    0.2035 C.3       1 <0>        -0.1331
      5 C5         -2.1448   -0.0441    1.4347 C.3       1 <0>         0.1446
      6 C6         -1.3658   -0.4198    2.6968 C.3       1 <0>        -0.0729
      7 C7         -2.1816   -0.0680    3.9140 C.ar      1 <0>         0.1176
      8 C8         -2.4507   -1.0391    4.8602 C.ar      1 <0>        -0.1670
      9 C9         -3.2021   -0.7051    5.9762 C.ar      1 <0>        -0.0704
     10 C10        -3.6568    0.5991    6.0995 C.ar      1 <0>        -0.1721
     11 C11        -3.3481    1.5160    5.1129 C.ar      1 <0>         0.0957
     12 N1         -2.6260    1.1640    4.0669 N.ar      1 <0>        -0.4575
     13 C12        -3.5230   -0.6506    1.4959 C.2       1 <0>         0.4917
     14 O1         -3.7401   -1.7179    0.9625 O.2       1 <0>        -0.5043
     15 N2         -4.5144   -0.0068    2.1433 N.am      1 <0>        -0.6625
     16 C13        -5.7561   -0.6202    2.3030 C.ar      1 <0>         0.1941
     17 C14        -5.8328   -1.9990    2.4767 C.ar      1 <0>        -0.1310
     18 C15        -7.0559   -2.6108    2.6349 C.ar      1 <0>        -0.0085
     19 C16        -8.2240   -1.8442    2.6209 C.ar      1 <0>        -0.2156
     20 C17        -8.1393   -0.4579    2.4458 C.ar      1 <0>        -0.0789
     21 C18        -6.9176    0.1482    2.2942 C.ar      1 <0>        -0.1293
     22 C19        -9.5561    0.0565    2.4804 C.3       1 <0>         0.0916
     23 O2        -10.4015   -1.0800    2.6774 O.3       1 <0>        -0.3146
     24 C20        -9.6480   -2.1894    2.7611 C.2       1 <0>         0.5234
     25 O3        -10.0790   -3.3130    2.9284 O.2       1 <0>        -0.4491
     26 O4         -2.2536    1.3781    1.3478 O.3       1 <0>        -0.5174
     27 C21         0.5685   -0.0445   -1.1967 C.ar      1 <0>        -0.0665
     28 C22        -0.2350   -0.4486   -2.2464 C.ar      1 <0>        -0.1274
     29 C23         0.2553   -0.4304   -3.5388 C.ar      1 <0>        -0.1169
     30 C24         1.5488   -0.0076   -3.7815 C.ar      1 <0>        -0.1257
     31 C25         2.3520    0.3973   -2.7318 C.ar      1 <0>        -0.1174
     32 C26         1.8604    0.3831   -1.4399 C.ar      1 <0>        -0.1143
     33 H1          1.0651    1.7747    0.6546 H         1 <0>         0.0442
     34 H2         -0.6630    1.9729    0.2772 H         1 <0>         0.0695
     35 H3         -0.1664    1.3150    1.8548 H         1 <0>         0.0790
     36 H4          0.4783   -1.0481    2.0766 H         1 <0>         0.0724
     37 H5          0.9180   -1.9844    0.6281 H         1 <0>         0.0588
     38 H6          1.9122   -0.5941    1.1249 H         1 <0>         0.0606
     39 H7         -1.9111   -0.2281   -0.6989 H         1 <0>         0.0829
     40 H8         -1.4074   -1.6652    0.2227 H         1 <0>         0.0910
     41 H9         -1.1623   -1.4906    2.6929 H         1 <0>         0.1017
     42 H10        -0.4242    0.1289    2.7195 H         1 <0>         0.1288
     43 H11        -2.0806   -2.0455    4.7313 H         1 <0>         0.1325
     44 H12        -3.4283   -1.4432    6.7315 H         1 <0>         0.1342
     45 H13        -4.2452    0.8945    6.9557 H         1 <0>         0.1343
     46 H14        -3.6985    2.5337    5.2015 H         1 <0>         0.1572
     47 H15        -4.3639    0.8833    2.4982 H         1 <0>         0.4232
     48 H16        -4.9296   -2.5911    2.4871 H         1 <0>         0.1458
     49 H17        -7.1123   -3.6810    2.7692 H         1 <0>         0.1414
     50 H18        -6.8572    1.2186    2.1641 H         1 <0>         0.1391
     51 H19        -9.6777    0.7592    3.3048 H         1 <0>         0.1185
     52 H20        -9.7994    0.5432    1.5359 H         1 <0>         0.1184
     53 H21        -2.7368    1.6888    0.5699 H         1 <0>         0.3743
     54 H22        -1.2456   -0.7788   -2.0568 H         1 <0>         0.1261
     55 H23        -0.3723   -0.7467   -4.3589 H         1 <0>         0.1202
     56 H24         1.9320    0.0059   -4.7911 H         1 <0>         0.1199
     57 H25         3.3628    0.7272   -2.9214 H         1 <0>         0.1207
     58 H26         2.4867    0.7030   -0.6203 H         1 <0>         0.1207
@<TRIPOS>BOND
     1    1    2 1
     2    1   33 1
     3    1   34 1
     4    1   35 1
     5    2    3 1
     6    2    4 1
     7    2   27 1
     8    3   36 1
     9    3   37 1
    10    3   38 1
    11    4    5 1
    12    4   39 1
    13    4   40 1
    14    5    6 1
    15    5   13 1
    16    5   26 1
    17    6    7 1
    18    6   41 1
    19    6   42 1
    20    7   12 ar
    21    7    8 ar
    22    8    9 ar
    23    8   43 1
    24    9   10 ar
    25    9   44 1
    26   10   11 ar
    27   10   45 1
    28   11   12 ar
    29   11   46 1
    30   13   14 2
    31   13   15 am
    32   15   16 1
    33   15   47 1
    34   16   21 ar
    35   16   17 ar
    36   17   18 ar
    37   17   48 1
    38   18   19 ar
    39   18   49 1
    40   19   24 1
    41   19   20 ar
    42   20   21 ar
    43   20   22 1
    44   21   50 1
    45   22   23 1
    46   22   51 1
    47   22   52 1
    48   23   24 1
    49   24   25 2
    50   26   53 1
    51   27   32 ar
    52   27   28 ar
    53   28   29 ar
    54   28   54 1
    55   29   30 ar
    56   29   55 1
    57   30   31 ar
    58   30   56 1
    59   31   32 ar
    60   31   57 1
    61   32   58 1
@<TRIPOS>MOLECULE
CHEMBL366182__1
   58    61     0     0     0
SMALL
USER_CHARGES

@<TRIPOS>ATOM
      1 C1         -0.0392   -0.3527    2.1767 C.3       1 <0>        -0.1406
      2 C2         -0.5682   -1.4693    1.2743 C.3       1 <0>        -0.0275
      3 C3         -1.8960   -1.9881    1.8300 C.3       1 <0>        -0.1617
      4 C4         -0.7850   -0.9236   -0.1385 C.3       1 <0>        -0.1272
      5 C5         -1.9061    0.1173   -0.1167 C.3       1 <0>         0.1418
      6 C6         -1.8702    0.9327   -1.4108 C.3       1 <0>        -0.0515
      7 C7         -0.5356    1.6216   -1.5336 C.ar      1 <0>         0.1306
      8 C8          0.2375    1.4174   -2.6611 C.ar      1 <0>        -0.1705
      9 C9          1.4637    2.0559   -2.7642 C.ar      1 <0>        -0.0754
     10 C10         1.8683    2.8797   -1.7247 C.ar      1 <0>        -0.1752
     11 C11         1.0417    3.0357   -0.6284 C.ar      1 <0>         0.0991
     12 N1         -0.1211    2.4165   -0.5667 N.ar      1 <0>        -0.4459
     13 C12        -3.2369   -0.5801    0.0008 C.2       1 <0>         0.5022
     14 O1         -3.6602   -1.2387   -0.9254 O.2       1 <0>        -0.5007
     15 N2         -3.9565   -0.4719    1.1352 N.am      1 <0>        -0.6732
     16 C13        -5.1304   -1.2081    1.2889 C.ar      1 <0>         0.1893
     17 C14        -5.9546   -1.4390    0.1915 C.ar      1 <0>        -0.1290
     18 C15        -7.1151   -2.1652    0.3365 C.ar      1 <0>        -0.0102
     19 C16        -7.4662   -2.6720    1.5905 C.ar      1 <0>        -0.2118
     20 C17        -6.6324   -2.4360    2.6899 C.ar      1 <0>        -0.0813
     21 C18        -5.4738   -1.7164    2.5393 C.ar      1 <0>        -0.1255
     22 C19        -7.2907   -3.1089    3.8676 C.3       1 <0>         0.0916
     23 O2         -8.4928   -3.7099    3.3786 O.3       1 <0>        -0.3146
     24 C20        -8.6112   -3.4675    2.0623 C.2       1 <0>         0.5228
     25 O3         -9.5290   -3.8495    1.3637 O.2       1 <0>        -0.4482
     26 O4         -1.7250    0.9892    1.0008 O.3       1 <0>        -0.5199
     27 C21         0.4321   -2.5956    1.2298 C.ar      1 <0>        -0.0673
     28 C22         0.9961   -2.9718    0.0252 C.ar      1 <0>        -0.1218
     29 C23         1.9136   -4.0050   -0.0157 C.ar      1 <0>        -0.1159
     30 C24         2.2675   -4.6615    1.1482 C.ar      1 <0>        -0.1235
     31 C25         1.7041   -4.2847    2.3530 C.ar      1 <0>        -0.1168
     32 C26         0.7898   -3.2487    2.3944 C.ar      1 <0>        -0.1159
     33 H1          0.7021   -0.7612    2.8636 H         1 <0>         0.0564
     34 H2          0.4214    0.4222    1.5639 H         1 <0>         0.0780
     35 H3         -0.8641    0.0763    2.7455 H         1 <0>         0.0579
     36 H4         -2.4710   -1.1550    2.2343 H         1 <0>         0.0592
     37 H5         -2.4622   -2.4664    1.0308 H         1 <0>         0.0620
     38 H6         -1.7007   -2.7124    2.6207 H         1 <0>         0.0689
     39 H7          0.1350   -0.4593   -0.4938 H         1 <0>         0.0888
     40 H8         -1.0606   -1.7406   -0.8052 H         1 <0>         0.0852
     41 H9         -2.0161    0.2687   -2.2628 H         1 <0>         0.1056
     42 H10        -2.6641    1.6793   -1.3920 H         1 <0>         0.0948
     43 H11        -0.1092    0.7683   -3.4516 H         1 <0>         0.1336
     44 H12         2.0891    1.9148   -3.6333 H         1 <0>         0.1337
     45 H13         2.8176    3.3925   -1.7712 H         1 <0>         0.1332
     46 H14         1.3496    3.6755    0.1854 H         1 <0>         0.1547
     47 H15        -3.6577    0.1182    1.8447 H         1 <0>         0.4146
     48 H16        -5.6829   -1.0467   -0.7774 H         1 <0>         0.1537
     49 H17        -7.7529   -2.3424   -0.5168 H         1 <0>         0.1422
     50 H18        -4.8314   -1.5410    3.3896 H         1 <0>         0.1402
     51 H19        -6.6309   -3.8739    4.2768 H         1 <0>         0.1180
     52 H20        -7.5277   -2.3711    4.6342 H         1 <0>         0.1188
     53 H21        -1.9401    0.5862    1.8531 H         1 <0>         0.3654
     54 H22         0.7197   -2.4589   -0.8841 H         1 <0>         0.1234
     55 H23         2.3538   -4.2994   -0.9569 H         1 <0>         0.1216
     56 H24         2.9838   -5.4691    1.1162 H         1 <0>         0.1212
     57 H25         1.9803   -4.7978    3.2623 H         1 <0>         0.1219
     58 H26         0.3525   -2.9518    3.3362 H         1 <0>         0.1211
@<TRIPOS>BOND
     1    1    2 1
     2    1   33 1
     3    1   34 1
     4    1   35 1
     5    2    3 1
     6    2    4 1
     7    2   27 1
     8    3   36 1
     9    3   37 1
    10    3   38 1
    11    4    5 1
    12    4   39 1
    13    4   40 1
    14    5    6 1
    15    5   13 1
    16    5   26 1
    17    6    7 1
    18    6   41 1
    19    6   42 1
    20    7   12 ar
    21    7    8 ar
    22    8    9 ar
    23    8   43 1
    24    9   10 ar
    25    9   44 1
    26   10   11 ar
    27   10   45 1
    28   11   12 ar
    29   11   46 1
    30   13   14 2
    31   13   15 am
    32   15   16 1
    33   15   47 1
    34   16   21 ar
    35   16   17 ar
    36   17   18 ar
    37   17   48 1
    38   18   19 ar
    39   18   49 1
    40   19   24 1
    41   19   20 ar
    42   20   21 ar
    43   20   22 1
    44   21   50 1
    45   22   23 1
    46   22   51 1
    47   22   52 1
    48   23   24 1
    49   24   25 2
    50   26   53 1
    51   27   32 ar
    52   27   28 ar
    53   28   29 ar
    54   28   54 1
    55   29   30 ar
    56   29   55 1
    57   30   31 ar
    58   30   56 1
    59   31   32 ar
    60   31   57 1
    61   32   58 1
@<TRIPOS>MOLECULE
CHEMBL219314
   56    58     0     0     0
SMALL
USER_CHARGES

@<TRIPOS>ATOM
      1 C1          0.6004    0.8722    0.3485 C.3       1 <0>        -0.1495
      2 C2         -0.5636    0.3813   -0.5146 C.3       1 <0>        -0.0138
      3 C3         -0.0492   -0.6390   -1.5321 C.3       1 <0>        -0.1358
      4 C4         -1.6186   -0.2757    0.3777 C.3       1 <0>        -0.1534
      5 C5         -1.6878    0.4642    1.7151 C.3       1 <0>         0.0775
      6 C6         -2.6522   -0.2655    2.6523 C.3       1 <0>         0.0930
      7 N1         -2.6907    0.4222    3.9453 N.pl3     1 <0>        -0.6192
      8 C7         -1.5618    0.3018    4.8756 C.3       1 <0>         0.1405
      9 C8         -2.1038   -0.0383    6.2715 C.3       1 <0>        -0.1840
     10 C9         -3.0827    1.0501    6.6657 C.2       1 <0>         0.4044
     11 O1         -3.0884    1.5157    7.7859 O.2       1 <0>        -0.4572
     12 C10        -4.0247    1.5207    5.6394 C.ar      1 <0>        -0.2411
     13 C11        -3.7916    1.1927    4.2896 C.ar      1 <0>         0.2672
     14 C12        -4.6723    1.6401    3.3139 C.ar      1 <0>        -0.2168
     15 C13        -5.7656    2.4035    3.6708 C.ar      1 <0>        -0.0402
     16 C14        -5.9967    2.7309    4.9982 C.ar      1 <0>        -0.1838
     17 C15        -5.1378    2.2892    5.9876 C.ar      1 <0>        -0.0192
     18 C16        -2.1852    1.8923    1.4827 C.3       1 <0>         0.4649
     19 F1         -3.4163    1.8552    0.8192 F         1 <0>        -0.1706
     20 F2         -2.3382    2.5390    2.7137 F         1 <0>        -0.1649
     21 F3         -1.2558    2.5886    0.7025 F         1 <0>        -0.1530
     22 O2         -0.3873    0.5030    2.3060 O.3       1 <0>        -0.5210
     23 C17        -1.1777    1.5498   -1.2415 C.ar      1 <0>        -0.0599
     24 C18        -2.5359    1.5701   -1.4944 C.ar      1 <0>        -0.1387
     25 C19        -3.1004    2.6436   -2.1617 C.ar      1 <0>         0.0714
     26 C20        -2.3049    3.6982   -2.5771 C.ar      1 <0>        -0.1236
     27 C21        -0.9468    3.6805   -2.3256 C.ar      1 <0>        -0.1757
     28 C22        -0.3807    2.6080   -1.6519 C.ar      1 <0>         0.1265
     29 O3          0.9549    2.5919   -1.3988 O.3       1 <0>        -0.2939
     30 C23         1.7143    3.7151   -1.8503 C.3       1 <0>         0.0150
     31 F4         -4.4286    2.6622   -2.4083 F         1 <0>        -0.1401
     32 H1          1.4274    1.1737   -0.2942 H         1 <0>         0.0672
     33 H2          0.2756    1.7238    0.9463 H         1 <0>         0.0913
     34 H3          0.9274    0.0687    1.0085 H         1 <0>         0.0567
     35 H4          0.3156   -1.5225   -1.0081 H         1 <0>         0.0611
     36 H5         -0.8597   -0.9234   -2.2031 H         1 <0>         0.0552
     37 H6          0.7631   -0.1981   -2.1099 H         1 <0>         0.0635
     38 H7         -2.5903   -0.2293   -0.1139 H         1 <0>         0.0939
     39 H8         -1.3491   -1.3174    0.5523 H         1 <0>         0.0982
     40 H9         -3.6502   -0.2713    2.2140 H         1 <0>         0.1027
     41 H10        -2.3127   -1.2912    2.7963 H         1 <0>         0.1008
     42 H11        -0.8946   -0.4919    4.5395 H         1 <0>         0.0912
     43 H12        -1.0185    1.2460    4.9148 H         1 <0>         0.0739
     44 H13        -2.6136   -1.0014    6.2451 H         1 <0>         0.1040
     45 H14        -1.2830   -0.0737    6.9878 H         1 <0>         0.1047
     46 H15        -4.5019    1.3913    2.2769 H         1 <0>         0.1341
     47 H16        -6.4476    2.7496    2.9083 H         1 <0>         0.1259
     48 H17        -6.8567    3.3286    5.2619 H         1 <0>         0.1260
     49 H18        -5.3193    2.5453    7.0210 H         1 <0>         0.1317
     50 H19        -0.0090   -0.3694    2.4818 H         1 <0>         0.3879
     51 H20        -3.1574    0.7480   -1.1716 H         1 <0>         0.1430
     52 H21        -2.7465    4.5348   -3.0982 H         1 <0>         0.1357
     53 H22        -0.3265    4.5030   -2.6500 H         1 <0>         0.1366
     54 H23         2.7623    3.5755   -1.5849 H         1 <0>         0.1005
     55 H24         1.6224    3.8044   -2.9327 H         1 <0>         0.0544
     56 H25         1.3376    4.6221   -1.3776 H         1 <0>         0.0551
@<TRIPOS>BOND
     1    1    2 1
     2    1   32 1
     3    1   33 1
     4    1   34 1
     5    2    3 1
     6    2    4 1
     7    2   23 1
     8    3   35 1
     9    3   36 1
    10    3   37 1
    11    4    5 1
    12    4   38 1
    13    4   39 1
    14    5    6 1
    15    5   18 1
    16    5   22 1
    17    6    7 1
    18    6   40 1
    19    6   41 1
    20    7   13 1
    21    7    8 1
    22    8    9 1
    23    8   42 1
    24    8   43 1
    25    9   10 1
    26    9   44 1
    27    9   45 1
    28   10   11 2
    29   10   12 1
    30   12   17 ar
    31   12   13 ar
    32   13   14 ar
    33   14   15 ar
    34   14   46 1
    35   15   16 ar
    36   15   47 1
    37   16   17 ar
    38   16   48 1
    39   17   49 1
    40   18   19 1
    41   18   20 1
    42   18   21 1
    43   22   50 1
    44   23   28 ar
    45   23   24 ar
    46   24   25 ar
    47   24   51 1
    48   25   26 ar
    49   25   31 1
    50   26   27 ar
    51   26   52 1
    52   27   28 ar
    53   27   53 1
    54   28   29 1
    55   29   30 1
    56   30   54 1
    57   30   55 1
    58   30   56 1
@<TRIPOS>MOLECULE
CHEMBL219314__1
   56    58     0     0     0
SMALL
USER_CHARGES

@<TRIPOS>ATOM
      1 C1         -0.1532    0.6648   -1.8977 C.3       1 <0>        -0.1371
      2 C2         -0.3631    0.8494   -0.3934 C.3       1 <0>        -0.0109
      3 C3         -0.6471    2.3229   -0.0951 C.3       1 <0>        -0.1539
      4 C4         -1.5495   -0.0014    0.0641 C.3       1 <0>        -0.1548
      5 C5         -2.2095    0.6549    1.2784 C.3       1 <0>         0.0775
      6 C6         -3.4605   -0.1352    1.6681 C.3       1 <0>         0.0899
      7 N1         -4.1271    0.5285    2.7912 N.pl3     1 <0>        -0.6213
      8 C7         -5.0503    1.6424    2.5436 C.3       1 <0>         0.1390
      9 C8         -4.6949    2.8000    3.4878 C.3       1 <0>        -0.1803
     10 C9         -4.7657    2.2767    4.9088 C.2       1 <0>         0.4048
     11 O1         -5.2782    2.9283    5.7945 O.2       1 <0>        -0.4590
     12 C10        -4.1904    0.9496    5.1733 C.ar      1 <0>        -0.2347
     13 C11        -3.8910    0.1013    4.0896 C.ar      1 <0>         0.2667
     14 C12        -3.3549   -1.1564    4.3318 C.ar      1 <0>        -0.2082
     15 C13        -3.1222   -1.5677    5.6287 C.ar      1 <0>        -0.0388
     16 C14        -3.4184   -0.7365    6.6983 C.ar      1 <0>        -0.1841
     17 C15        -3.9448    0.5234    6.4806 C.ar      1 <0>        -0.0183
     18 C16        -1.2263    0.6638    2.4506 C.3       1 <0>         0.4634
     19 F1         -0.0625    1.3448    2.0779 F         1 <0>        -0.1527
     20 F2         -1.8124    1.3069    3.5461 F         1 <0>        -0.1641
     21 F3         -0.9049   -0.6523    2.7997 F         1 <0>        -0.1710
     22 O2         -2.5759    1.9974    0.9539 O.3       1 <0>        -0.5184
     23 C17         0.8785    0.4178    0.3437 C.ar      1 <0>        -0.0486
     24 C18         0.8515   -0.7095    1.1421 C.ar      1 <0>        -0.1573
     25 C19         1.9919   -1.1065    1.8190 C.ar      1 <0>         0.0748
     26 C20         3.1610   -0.3743    1.6974 C.ar      1 <0>        -0.1271
     27 C21         3.1908    0.7531    0.8999 C.ar      1 <0>        -0.1715
     28 C22         2.0502    1.1488    0.2164 C.ar      1 <0>         0.1169
     29 O3          2.0796    2.2550   -0.5732 O.3       1 <0>        -0.3019
     30 C23         3.3202    2.9591   -0.6575 C.3       1 <0>         0.0210
     31 F4          1.9642   -2.2090    2.5994 F         1 <0>        -0.1394
     32 H1          0.6334    1.3373   -2.2400 H         1 <0>         0.0694
     33 H2          0.1366   -0.3662   -2.1003 H         1 <0>         0.0532
     34 H3         -1.0800    0.8920   -2.4244 H         1 <0>         0.0594
     35 H4         -1.5756    2.6199   -0.5827 H         1 <0>         0.0592
     36 H5         -0.7408    2.4641    0.9816 H         1 <0>         0.0929
     37 H6          0.1729    2.9344   -0.4718 H         1 <0>         0.0598
     38 H7         -2.2748   -0.0791   -0.7459 H         1 <0>         0.0984
     39 H8         -1.1993   -0.9975    0.3350 H         1 <0>         0.0943
     40 H9         -4.1407   -0.1812    0.8176 H         1 <0>         0.1038
     41 H10        -3.1755   -1.1458    1.9605 H         1 <0>         0.1034
     42 H11        -4.9553    1.9725    1.5091 H         1 <0>         0.0917
     43 H12        -6.0735    1.3177    2.7328 H         1 <0>         0.0677
     44 H13        -3.6863    3.1540    3.2745 H         1 <0>         0.1119
     45 H14        -5.4079    3.6143    3.3583 H         1 <0>         0.1021
     46 H15        -3.1207   -1.8122    3.5063 H         1 <0>         0.1263
     47 H16        -2.7055   -2.5470    5.8123 H         1 <0>         0.1266
     48 H17        -3.2302   -1.0722    7.7074 H         1 <0>         0.1261
     49 H18        -4.1752    1.1694    7.3148 H         1 <0>         0.1314
     50 H19        -3.2577    2.0650    0.2714 H         1 <0>         0.3839
     51 H20        -0.0598   -1.2810    1.2384 H         1 <0>         0.1543
     52 H21         4.0498   -0.6847    2.2266 H         1 <0>         0.1357
     53 H22         4.1026    1.3241    0.8055 H         1 <0>         0.1366
     54 H23         3.2060    3.8187   -1.3180 H         1 <0>         0.1010
     55 H24         3.6125    3.3004    0.3356 H         1 <0>         0.0553
     56 H25         4.0884    2.2955   -1.0543 H         1 <0>         0.0551
@<TRIPOS>BOND
     1    1    2 1
     2    1   32 1
     3    1   33 1
     4    1   34 1
     5    2    3 1
     6    2    4 1
     7    2   23 1
     8    3   35 1
     9    3   36 1
    10    3   37 1
    11    4    5 1
    12    4   38 1
    13    4   39 1
    14    5    6 1
    15    5   18 1
    16    5   22 1
    17    6    7 1
    18    6   40 1
    19    6   41 1
    20    7   13 1
    21    7    8 1
    22    8    9 1
    23    8   42 1
    24    8   43 1
    25    9   10 1
    26    9   44 1
    27    9   45 1
    28   10   11 2
    29   10   12 1
    30   12   17 ar
    31   12   13 ar
    32   13   14 ar
    33   14   15 ar
    34   14   46 1
    35   15   16 ar
    36   15   47 1
    37   16   17 ar
    38   16   48 1
    39   17   49 1
    40   18   19 1
    41   18   20 1
    42   18   21 1
    43   22   50 1
    44   23   28 ar
    45   23   24 ar
    46   24   25 ar
    47   24   51 1
    48   25   26 ar
    49   25   31 1
    50   26   27 ar
    51   26   52 1
    52   27   28 ar
    53   27   53 1
    54   28   29 1
    55   29   30 1
    56   30   54 1
    57   30   55 1
    58   30   56 1
@<TRIPOS>MOLECULE
CHEMBL255570
   62    67     0     0     0
SMALL
USER_CHARGES

@<TRIPOS>ATOM
      1 C1         -0.0167    1.3776    0.0096 C.ar      1 <0>        -0.1656
      2 C2          1.1849    2.0698    0.0019 C.ar      1 <0>        -0.0500
      3 C3          2.3651    1.3426   -0.0133 C.ar      1 <0>        -0.2195
      4 C4          2.3054   -0.0383   -0.0202 C.ar      1 <0>         0.1326
      5 N1          1.1443   -0.6632   -0.0129 N.ar      1 <0>        -0.4739
      6 C5          0.0021   -0.0041    0.0020 C.ar      1 <0>         0.1386
      7 C6          3.6964    2.0488   -0.0227 C.3       1 <0>         0.0482
      8 N2          4.1424    2.2713    1.3591 N.4       1 <0>        -0.3853
      9 C7          3.1998    3.1715    2.0323 C.3       1 <0>        -0.0104
     10 C8          3.5840    3.3116    3.5117 C.3       1 <0>        -0.0964
     11 C9          5.0374    3.7209    3.5720 C.2       1 <0>        -0.1321
     12 C10         5.4341    4.7556    4.2851 C.2       1 <0>        -0.0373
     13 C11         6.8296    5.2084    4.3372 C.2       1 <0>         0.0957
     14 C12         7.8195    4.6050    3.5934 C.2       1 <0>        -0.1996
     15 C13         9.0160    5.2709    3.8448 C.2       1 <0>         0.0684
     16 N3          8.7862    6.2324    4.7042 N.2       1 <0>        -0.2573
     17 N4          7.4272    6.2214    5.0403 N.pl3     1 <0>        -0.3050
     18 C14         6.7913    7.0915    5.9359 C.ar      1 <0>         0.1331
     19 C15         5.4854    7.5001    5.6994 C.ar      1 <0>        -0.1047
     20 C16         4.8605    8.3577    6.5832 C.ar      1 <0>        -0.1319
     21 C17         5.5353    8.8101    7.7047 C.ar      1 <0>         0.1090
     22 C18         6.8377    8.4037    7.9424 C.ar      1 <0>        -0.1293
     23 C19         7.4642    7.5417    7.0640 C.ar      1 <0>        -0.0754
     24 F1          4.9224    9.6494    8.5679 F         1 <0>        -0.1276
     25 C20         7.4809    3.4188    2.7187 C.3       1 <0>        -0.0323
     26 C21         6.0338    2.9071    2.7726 C.3       1 <0>        -0.0197
     27 C22         5.4921    2.8505    1.3446 C.3       1 <0>        -0.0014
     28 C23         6.0542    1.4880    3.3443 C.3       1 <0>        -0.0802
     29 C24         6.4657    1.5361    4.7933 C.ar      1 <0>        -0.1022
     30 C25         7.8026    1.4505    5.1348 C.ar      1 <0>        -0.0743
     31 C26         8.1812    1.4949    6.4631 C.ar      1 <0>        -0.1474
     32 C27         7.2210    1.6251    7.4521 C.ar      1 <0>         0.1105
     33 C28         5.8823    1.7108    7.1089 C.ar      1 <0>        -0.1515
     34 C29         5.5065    1.6714    5.7796 C.ar      1 <0>        -0.0825
     35 F2          7.5899    1.6682    8.7511 F         1 <0>        -0.1335
     36 H1         -0.9552    1.9117    0.0259 H         1 <0>         0.1511
     37 H2          1.2009    3.1496    0.0072 H         1 <0>         0.1448
     38 H3          3.2203   -0.6121   -0.0320 H         1 <0>         0.1630
     39 H4         -0.9294   -0.5505    0.0083 H         1 <0>         0.1709
     40 H5          4.4293    1.4355   -0.5468 H         1 <0>         0.1434
     41 H6          3.5953    3.0079   -0.5308 H         1 <0>         0.1398
     42 H7          3.2304    4.1511    1.5554 H         1 <0>         0.1339
     43 H8          2.1918    2.7636    1.9565 H         1 <0>         0.1333
     44 H9          2.9653    4.0751    3.9834 H         1 <0>         0.1226
     45 H10         3.4473    2.3576    4.0209 H         1 <0>         0.1023
     46 H11         4.6966    5.2971    4.8589 H         1 <0>         0.1288
     47 H12         9.9735    5.0341    3.4051 H         1 <0>         0.1947
     48 H13         4.9590    7.1478    4.8247 H         1 <0>         0.1375
     49 H14         3.8450    8.6761    6.3994 H         1 <0>         0.1494
     50 H15         7.3624    8.7579    8.8174 H         1 <0>         0.1514
     51 H16         8.4783    7.2215    7.2520 H         1 <0>         0.1464
     52 H17         7.7038    3.6879    1.6862 H         1 <0>         0.0840
     53 H18         8.1394    2.5963    2.9978 H         1 <0>         0.0935
     54 H19         6.1470    2.2315    0.7314 H         1 <0>         0.1406
     55 H20         5.4511    3.8581    0.9310 H         1 <0>         0.1379
     56 H21         5.0596    1.0494    3.2635 H         1 <0>         0.0660
     57 H22         6.7657    0.8810    2.7845 H         1 <0>         0.0996
     58 H23         8.5514    1.3485    4.3632 H         1 <0>         0.1341
     59 H24         9.2256    1.4277    6.7297 H         1 <0>         0.1388
     60 H25         5.1325    1.8121    7.8795 H         1 <0>         0.1370
     61 H26         4.4628    1.7427    5.5113 H         1 <0>         0.1256
     62 H27         4.1647    1.3886    1.8474 H         1 <0>         0.4200
@<TRIPOS>BOND
     1    1    6 ar
     2    1    2 ar
     3    1   36 1
     4    2    3 ar
     5    2   37 1
     6    3    4 ar
     7    3    7 1
     8    4    5 ar
     9    4   38 1
    10    5    6 ar
    11    6   39 1
    12    7    8 1
    13    7   40 1
    14    7   41 1
    15    8   27 1
    16    8    9 1
    17    8   62 1
    18    9   10 1
    19    9   42 1
    20    9   43 1
    21   10   11 1
    22   10   44 1
    23   10   45 1
    24   11   26 1
    25   11   12 2
    26   12   13 1
    27   12   46 1
    28   13   17 1
    29   13   14 2
    30   14   15 1
    31   14   25 1
    32   15   16 2
    33   15   47 1
    34   16   17 1
    35   17   18 1
    36   18   23 ar
    37   18   19 ar
    38   19   20 ar
    39   19   48 1
    40   20   21 ar
    41   20   49 1
    42   21   22 ar
    43   21   24 1
    44   22   23 ar
    45   22   50 1
    46   23   51 1
    47   25   26 1
    48   25   52 1
    49   25   53 1
    50   26   27 1
    51   26   28 1
    52   27   54 1
    53   27   55 1
    54   28   29 1
    55   28   56 1
    56   28   57 1
    57   29   34 ar
    58   29   30 ar
    59   30   31 ar
    60   30   58 1
    61   31   32 ar
    62   31   59 1
    63   32   33 ar
    64   32   35 1
    65   33   34 ar
    66   33   60 1
    67   34   61 1
@<TRIPOS>MOLECULE
CHEMBL255570__1
   61    66     0     0     0
SMALL
USER_CHARGES

@<TRIPOS>ATOM
      1 C1         -0.0167    1.3776    0.0096 C.ar      1 <0>        -0.1728
      2 C2          1.1849    2.0698    0.0019 C.ar      1 <0>        -0.0716
      3 C3          2.3651    1.3426   -0.0133 C.ar      1 <0>        -0.1316
      4 C4          2.3054   -0.0383   -0.0202 C.ar      1 <0>         0.1209
      5 N1          1.1443   -0.6632   -0.0129 N.ar      1 <0>        -0.4845
      6 C5          0.0021   -0.0041    0.0020 C.ar      1 <0>         0.0994
      7 C6          3.6964    2.0488   -0.0227 C.3       1 <0>         0.1003
      8 N2          4.1424    2.2713    1.3591 N.3       1 <0>        -0.5344
      9 C7          3.2363    3.1860    2.0635 C.3       1 <0>         0.0551
     10 C8          3.6099    3.2367    3.5513 C.3       1 <0>        -0.0800
     11 C9          5.0852    3.5499    3.6461 C.2       1 <0>        -0.0521
     12 C10         5.5327    4.5336    4.4006 C.2       1 <0>        -0.1153
     13 C11         6.9526    4.8942    4.4933 C.2       1 <0>         0.1226
     14 C12         7.9176    4.2510    3.7502 C.2       1 <0>        -0.2112
     15 C13         9.1486    4.8300    4.0460 C.2       1 <0>         0.0693
     16 N3          8.9626    5.7778    4.9307 N.2       1 <0>        -0.2785
     17 N4          7.5986    5.8448    5.2395 N.pl3     1 <0>        -0.3196
     18 C14         7.0007    6.7264    6.1498 C.ar      1 <0>         0.1493
     19 C15         5.7289    7.2254    5.9014 C.ar      1 <0>        -0.1055
     20 C16         5.1414    8.0942    6.7997 C.ar      1 <0>        -0.1305
     21 C17         5.8198    8.4680    7.9478 C.ar      1 <0>         0.0974
     22 C18         7.0883    7.9715    8.1974 C.ar      1 <0>        -0.1315
     23 C19         7.6770    7.0979    7.3043 C.ar      1 <0>        -0.0824
     24 F1          5.2435    9.3184    8.8252 F         1 <0>        -0.1333
     25 C20         7.5223    3.1175    2.8307 C.3       1 <0>        -0.0349
     26 C21         6.0433    2.7025    2.8352 C.3       1 <0>        -0.0076
     27 C22         5.5345    2.7397    1.3941 C.3       1 <0>         0.0657
     28 C23         5.9559    1.2639    3.3489 C.3       1 <0>        -0.0643
     29 C24         6.3359    1.2271    4.8067 C.ar      1 <0>        -0.0845
     30 C25         7.6558    1.0383    5.1719 C.ar      1 <0>        -0.0825
     31 C26         8.0055    1.0048    6.5084 C.ar      1 <0>        -0.1509
     32 C27         7.0334    1.1605    7.4820 C.ar      1 <0>         0.0923
     33 C28         5.7118    1.3496    7.1150 C.ar      1 <0>        -0.1528
     34 C29         5.3652    1.3880    5.7778 C.ar      1 <0>        -0.0838
     35 F2          7.3741    1.1275    8.7889 F         1 <0>        -0.1425
     36 H1         -0.9552    1.9117    0.0259 H         1 <0>         0.1347
     37 H2          1.2009    3.1496    0.0072 H         1 <0>         0.1301
     38 H3          3.2203   -0.6121   -0.0320 H         1 <0>         0.1555
     39 H4         -0.9294   -0.5505    0.0083 H         1 <0>         0.1550
     40 H5          4.4293    1.4355   -0.5468 H         1 <0>         0.0909
     41 H6          3.5953    3.0079   -0.5308 H         1 <0>         0.0471
     42 H7          3.3217    4.1840    1.6336 H         1 <0>         0.0383
     43 H8          2.2104    2.8327    1.9588 H         1 <0>         0.0843
     44 H9          3.0342    4.0163    4.0502 H         1 <0>         0.0804
     45 H10         3.4067    2.2719    4.0161 H         1 <0>         0.0908
     46 H11         4.8198    5.1021    4.9793 H         1 <0>         0.1165
     47 H12        10.0983    4.5450    3.6179 H         1 <0>         0.1890
     48 H13         5.1997    6.9344    5.0060 H         1 <0>         0.1410
     49 H14         4.1524    8.4827    6.6067 H         1 <0>         0.1466
     50 H15         7.6159    8.2644    9.0930 H         1 <0>         0.1468
     51 H16         8.6644    6.7075    7.5015 H         1 <0>         0.1440
     52 H17         7.7889    3.4018    1.8128 H         1 <0>         0.0718
     53 H18         8.1170    2.2442    3.0988 H         1 <0>         0.0794
     54 H19         6.1524    2.0911    0.7731 H         1 <0>         0.0861
     55 H20         5.5844    3.7611    1.0167 H         1 <0>         0.0433
     56 H21         4.9365    0.8969    3.2297 H         1 <0>         0.0949
     57 H22         6.6382    0.6328    2.7795 H         1 <0>         0.0785
     58 H23         8.4139    0.9165    4.4123 H         1 <0>         0.1304
     59 H24         9.0367    0.8569    6.7935 H         1 <0>         0.1314
     60 H25         4.9526    1.4709    7.8735 H         1 <0>         0.1310
     61 H26         4.3350    1.5399    5.4912 H         1 <0>         0.1284
@<TRIPOS>BOND
     1    1    6 ar
     2    1    2 ar
     3    1   36 1
     4    2    3 ar
     5    2   37 1
     6    3    4 ar
     7    3    7 1
     8    4    5 ar
     9    4   38 1
    10    5    6 ar
    11    6   39 1
    12    7    8 1
    13    7   40 1
    14    7   41 1
    15    8   27 1
    16    8    9 1
    17    9   10 1
    18    9   42 1
    19    9   43 1
    20   10   11 1
    21   10   44 1
    22   10   45 1
    23   11   26 1
    24   11   12 2
    25   12   13 1
    26   12   46 1
    27   13   17 1
    28   13   14 2
    29   14   15 1
    30   14   25 1
    31   15   16 2
    32   15   47 1
    33   16   17 1
    34   17   18 1
    35   18   23 ar
    36   18   19 ar
    37   19   20 ar
    38   19   48 1
    39   20   21 ar
    40   20   49 1
    41   21   22 ar
    42   21   24 1
    43   22   23 ar
    44   22   50 1
    45   23   51 1
    46   25   26 1
    47   25   52 1
    48   25   53 1
    49   26   27 1
    50   26   28 1
    51   27   54 1
    52   27   55 1
    53   28   29 1
    54   28   56 1
    55   28   57 1
    56   29   34 ar
    57   29   30 ar
    58   30   31 ar
    59   30   58 1
    60   31   32 ar
    61   31   59 1
    62   32   33 ar
    63   32   35 1
    64   33   34 ar
    65   33   60 1
    66   34   61 1
@<TRIPOS>MOLECULE
CHEMBL255570__2
   62    67     0     0     0
SMALL
USER_CHARGES

@<TRIPOS>ATOM
      1 C1         -0.0167    1.3776    0.0096 C.ar      1 <0>        -0.1665
      2 C2          1.1849    2.0698    0.0019 C.ar      1 <0>        -0.0475
      3 C3          2.3651    1.3426   -0.0133 C.ar      1 <0>        -0.2194
      4 C4          2.3054   -0.0383   -0.0202 C.ar      1 <0>         0.1328
      5 N1          1.1443   -0.6632   -0.0129 N.ar      1 <0>        -0.4747
      6 C5          0.0021   -0.0041    0.0020 C.ar      1 <0>         0.1380
      7 C6          3.6964    2.0488   -0.0227 C.3       1 <0>         0.0482
      8 N2          4.1424    2.2713    1.3591 N.4       1 <0>        -0.3774
      9 C7          3.1780    3.1363    2.0344 C.3       1 <0>        -0.0049
     10 C8          3.8021    3.8433    3.2369 C.3       1 <0>        -0.0949
     11 C9          4.9813    3.0327    3.7268 C.2       1 <0>        -0.1514
     12 C10         5.0275    2.6160    4.9887 C.2       1 <0>        -0.0305
     13 C11         6.1771    1.7845    5.3832 C.2       1 <0>         0.1032
     14 C12         6.9920    1.1999    4.4189 C.2       1 <0>        -0.2192
     15 C13         7.9739    0.4858    5.0763 C.2       1 <0>         0.0688
     16 N3          7.7805    0.6040    6.3715 N.2       1 <0>        -0.2658
     17 N4          6.6486    1.4082    6.5904 N.pl3     1 <0>        -0.2817
     18 C14         6.1083    1.7562    7.8356 C.ar      1 <0>         0.1295
     19 C15         5.5323    3.0064    8.0186 C.ar      1 <0>        -0.1026
     20 C16         5.0004    3.3475    9.2465 C.ar      1 <0>        -0.1350
     21 C17         5.0412    2.4437   10.2951 C.ar      1 <0>         0.1122
     22 C18         5.6153    1.1963   10.1146 C.ar      1 <0>        -0.1317
     23 C19         6.1431    0.8493    8.8866 C.ar      1 <0>        -0.0730
     24 F1          4.5208    2.7794   11.4957 F         1 <0>        -0.1274
     25 C20         6.7276    1.3920    2.9480 C.3       1 <0>        -0.0328
     26 C21         6.0957    2.7700    2.7435 C.3       1 <0>        -0.0237
     27 C22         5.4878    2.8484    1.3362 C.3       1 <0>        -0.0022
     28 C23         7.1698    3.8495    2.8912 C.3       1 <0>        -0.0576
     29 C24         7.7200    3.8221    4.2939 C.ar      1 <0>        -0.0999
     30 C25         7.1322    4.5904    5.2815 C.ar      1 <0>        -0.0879
     31 C26         7.6356    4.5657    6.5683 C.ar      1 <0>        -0.1630
     32 C27         8.7291    3.7711    6.8682 C.ar      1 <0>         0.1146
     33 C28         9.3169    3.0020    5.8783 C.ar      1 <0>        -0.1466
     34 C29         8.8086    3.0243    4.5934 C.ar      1 <0>        -0.0619
     35 F2          9.2223    3.7465    8.1258 F         1 <0>        -0.1351
     36 H1         -0.9552    1.9117    0.0259 H         1 <0>         0.1506
     37 H2          1.2009    3.1496    0.0072 H         1 <0>         0.1435
     38 H3          3.2203   -0.6121   -0.0320 H         1 <0>         0.1624
     39 H4         -0.9294   -0.5505    0.0083 H         1 <0>         0.1703
     40 H5          4.4293    1.4355   -0.5468 H         1 <0>         0.1427
     41 H6          3.5953    3.0079   -0.5308 H         1 <0>         0.1400
     42 H7          2.8168    3.8850    1.3293 H         1 <0>         0.1303
     43 H8          2.3357    2.5333    2.3737 H         1 <0>         0.1273
     44 H9          4.1398    4.8366    2.9412 H         1 <0>         0.1057
     45 H10         3.0628    3.9298    4.0333 H         1 <0>         0.1120
     46 H11         4.2538    2.8769    5.6955 H         1 <0>         0.1403
     47 H12         8.7676   -0.0753    4.6058 H         1 <0>         0.1894
     48 H13         5.5006    3.7116    7.2013 H         1 <0>         0.1409
     49 H14         4.5526    4.3198    9.3894 H         1 <0>         0.1488
     50 H15         5.6465    0.4930   10.9336 H         1 <0>         0.1508
     51 H16         6.5867   -0.1252    8.7449 H         1 <0>         0.1461
     52 H17         7.6661    1.3341    2.3967 H         1 <0>         0.0981
     53 H18         6.0442    0.6198    2.5950 H         1 <0>         0.0695
     54 H19         6.1117    2.2899    0.6384 H         1 <0>         0.1410
     55 H20         5.4316    3.8905    1.0215 H         1 <0>         0.1370
     56 H21         7.9750    3.6604    2.1813 H         1 <0>         0.0924
     57 H22         6.7318    4.8275    2.6918 H         1 <0>         0.0843
     58 H23         6.2795    5.2104    5.0473 H         1 <0>         0.1255
     59 H24         7.1764    5.1663    7.3396 H         1 <0>         0.1317
     60 H25        10.1701    2.3820    6.1110 H         1 <0>         0.1336
     61 H26         9.2642    2.4210    3.8221 H         1 <0>         0.1301
     62 H27         4.1755    1.3840    1.8384 H         1 <0>         0.4226
@<TRIPOS>BOND
     1    1    6 ar
     2    1    2 ar
     3    1   36 1
     4    2    3 ar
     5    2   37 1
     6    3    4 ar
     7    3    7 1
     8    4    5 ar
     9    4   38 1
    10    5    6 ar
    11    6   39 1
    12    7    8 1
    13    7   40 1
    14    7   41 1
    15    8   27 1
    16    8    9 1
    17    8   62 1
    18    9   10 1
    19    9   42 1
    20    9   43 1
    21   10   11 1
    22   10   44 1
    23   10   45 1
    24   11   26 1
    25   11   12 2
    26   12   13 1
    27   12   46 1
    28   13   17 1
    29   13   14 2
    30   14   15 1
    31   14   25 1
    32   15   16 2
    33   15   47 1
    34   16   17 1
    35   17   18 1
    36   18   23 ar
    37   18   19 ar
    38   19   20 ar
    39   19   48 1
    40   20   21 ar
    41   20   49 1
    42   21   22 ar
    43   21   24 1
    44   22   23 ar
    45   22   50 1
    46   23   51 1
    47   25   26 1
    48   25   52 1
    49   25   53 1
    50   26   27 1
    51   26   28 1
    52   27   54 1
    53   27   55 1
    54   28   29 1
    55   28   56 1
    56   28   57 1
    57   29   34 ar
    58   29   30 ar
    59   30   31 ar
    60   30   58 1
    61   31   32 ar
    62   31   59 1
    63   32   33 ar
    64   32   35 1
    65   33   34 ar
    66   33   60 1
    67   34   61 1
@<TRIPOS>MOLECULE
CHEMBL255570__3
   61    66     0     0     0
SMALL
USER_CHARGES

@<TRIPOS>ATOM
      1 C1         -0.0167    1.3776    0.0096 C.ar      1 <0>        -0.1734
      2 C2          1.1849    2.0698    0.0019 C.ar      1 <0>        -0.0702
      3 C3          2.3651    1.3426   -0.0133 C.ar      1 <0>        -0.1322
      4 C4          2.3054   -0.0383   -0.0202 C.ar      1 <0>         0.1210
      5 N1          1.1443   -0.6632   -0.0129 N.ar      1 <0>        -0.4851
      6 C5          0.0021   -0.0041    0.0020 C.ar      1 <0>         0.0987
      7 C6          3.6964    2.0488   -0.0227 C.3       1 <0>         0.1039
      8 N2          4.1424    2.2713    1.3591 N.3       1 <0>        -0.5398
      9 C7          3.2148    3.1461    2.0748 C.3       1 <0>         0.0683
     10 C8          3.8660    3.7439    3.3220 C.3       1 <0>        -0.0924
     11 C9          4.9785    2.8290    3.7831 C.2       1 <0>        -0.0434
     12 C10         4.9694    2.3431    5.0216 C.2       1 <0>        -0.1127
     13 C11         6.0511    1.4149    5.3910 C.2       1 <0>         0.1301
     14 C12         6.8455    0.8276    4.4115 C.2       1 <0>        -0.2235
     15 C13         7.7622    0.0139    5.0468 C.2       1 <0>         0.0662
     16 N3          7.5491    0.0765    6.3428 N.2       1 <0>        -0.2877
     17 N4          6.4696    0.9437    6.5845 N.pl3     1 <0>        -0.2985
     18 C14         5.9271    1.2616    7.8367 C.ar      1 <0>         0.1497
     19 C15         5.4330    2.5369    8.0768 C.ar      1 <0>        -0.1036
     20 C16         4.8987    2.8482    9.3116 C.ar      1 <0>        -0.1343
     21 C17         4.8555    1.8894   10.3101 C.ar      1 <0>         0.0986
     22 C18         5.3477    0.6169   10.0725 C.ar      1 <0>        -0.1336
     23 C19         5.8776    0.3000    8.8373 C.ar      1 <0>        -0.0813
     24 F1          4.3328    2.1960   11.5175 F         1 <0>        -0.1341
     25 C20         6.6266    1.1151    2.9488 C.3       1 <0>        -0.0219
     26 C21         6.0935    2.5421    2.8081 C.3       1 <0>        -0.0090
     27 C22         5.5306    2.7383    1.3940 C.3       1 <0>         0.0696
     28 C23         7.2349    3.5354    3.0353 C.3       1 <0>        -0.0652
     29 C24         7.7499    3.3950    4.4446 C.ar      1 <0>        -0.0842
     30 C25         7.1934    4.1481    5.4616 C.ar      1 <0>        -0.0880
     31 C26         7.6645    4.0199    6.7544 C.ar      1 <0>        -0.1633
     32 C27         8.6944    3.1367    7.0310 C.ar      1 <0>         0.1029
     33 C28         9.2510    2.3829    6.0116 C.ar      1 <0>        -0.1464
     34 C29         8.7746    2.5090    4.7205 C.ar      1 <0>        -0.0629
     35 F2          9.1561    3.0108    8.2944 F         1 <0>        -0.1421
     36 H1         -0.9552    1.9117    0.0259 H         1 <0>         0.1343
     37 H2          1.2009    3.1496    0.0072 H         1 <0>         0.1295
     38 H3          3.2203   -0.6121   -0.0320 H         1 <0>         0.1548
     39 H4         -0.9294   -0.5505    0.0083 H         1 <0>         0.1547
     40 H5          4.4293    1.4355   -0.5468 H         1 <0>         0.0900
     41 H6          3.5953    3.0079   -0.5308 H         1 <0>         0.0467
     42 H7          2.9032    3.9540    1.4127 H         1 <0>         0.0384
     43 H8          2.3378    2.5705    2.3710 H         1 <0>         0.0760
     44 H9          4.2758    4.7256    3.0845 H         1 <0>         0.0785
     45 H10         3.1212    3.8394    4.1121 H         1 <0>         0.0806
     46 H11         4.1999    2.6186    5.7275 H         1 <0>         0.1252
     47 H12         8.5259   -0.5752    4.5609 H         1 <0>         0.1826
     48 H13         5.4669    3.2849    7.2986 H         1 <0>         0.1441
     49 H14         4.5147    3.8401    9.4989 H         1 <0>         0.1449
     50 H15         5.3134   -0.1292   10.8526 H         1 <0>         0.1455
     51 H16         6.2572   -0.6937    8.6510 H         1 <0>         0.1435
     52 H17         7.5708    1.0225    2.4121 H         1 <0>         0.0766
     53 H18         5.9005    0.4113    2.5420 H         1 <0>         0.0820
     54 H19         6.1254    2.1656    0.6825 H         1 <0>         0.0850
     55 H20         5.5657    3.7957    1.1315 H         1 <0>         0.0428
     56 H21         8.0413    3.3293    2.3316 H         1 <0>         0.0825
     57 H22         6.8691    4.5506    2.8816 H         1 <0>         0.0742
     58 H23         6.3903    4.8372    5.2456 H         1 <0>         0.1238
     59 H24         7.2299    4.6086    7.5487 H         1 <0>         0.1269
     60 H25        10.0545    1.6939    6.2261 H         1 <0>         0.1284
     61 H26         9.2056    1.9178    3.9260 H         1 <0>         0.1281
@<TRIPOS>BOND
     1    1    6 ar
     2    1    2 ar
     3    1   36 1
     4    2    3 ar
     5    2   37 1
     6    3    4 ar
     7    3    7 1
     8    4    5 ar
     9    4   38 1
    10    5    6 ar
    11    6   39 1
    12    7    8 1
    13    7   40 1
    14    7   41 1
    15    8   27 1
    16    8    9 1
    17    9   10 1
    18    9   42 1
    19    9   43 1
    20   10   11 1
    21   10   44 1
    22   10   45 1
    23   11   26 1
    24   11   12 2
    25   12   13 1
    26   12   46 1
    27   13   17 1
    28   13   14 2
    29   14   15 1
    30   14   25 1
    31   15   16 2
    32   15   47 1
    33   16   17 1
    34   17   18 1
    35   18   23 ar
    36   18   19 ar
    37   19   20 ar
    38   19   48 1
    39   20   21 ar
    40   20   49 1
    41   21   22 ar
    42   21   24 1
    43   22   23 ar
    44   22   50 1
    45   23   51 1
    46   25   26 1
    47   25   52 1
    48   25   53 1
    49   26   27 1
    50   26   28 1
    51   27   54 1
    52   27   55 1
    53   28   29 1
    54   28   56 1
    55   28   57 1
    56   29   34 ar
    57   29   30 ar
    58   30   31 ar
    59   30   58 1
    60   31   32 ar
    61   31   59 1
    62   32   33 ar
    63   32   35 1
    64   33   34 ar
    65   33   60 1
    66   34   61 1
@<TRIPOS>MOLECULE
CHEMBL555872
   65    69     0     0     0
SMALL
USER_CHARGES

@<TRIPOS>ATOM
      1 C1          0.0559    0.9389   -0.1245 C.3       1 <0>        -0.1332
      2 C2          0.1021   -0.4551    0.5119 C.3       1 <0>        -0.0661
      3 C3          0.7958   -1.3649   -0.4653 C.3       1 <0>         0.0475
      4 O1          2.0690   -0.9190   -0.8733 O.3       1 <0>        -0.3383
      5 C4          2.9748   -0.7758    0.2045 C.3       1 <0>         0.1590
      6 H1          2.6603   -1.5467    0.9477 H         1 <0>         0.0640
      7 C5          2.8127    0.5198    0.8953 C.2       1 <0>        -0.0905
      8 C6          3.3934    1.6431    0.4474 C.2       1 <0>        -0.0801
      9 C7          4.0931    1.6841   -0.8923 C.3       1 <0>        -0.0820
     10 C8          3.7754    3.0104   -1.5954 C.3       1 <0>        -0.1680
     11 C9          4.0531    4.1560   -0.6605 C.2       1 <0>         0.3858
     12 O2          4.5882    5.1595   -1.0792 O.2       1 <0>        -0.4652
     13 C10         3.6963    4.0654    0.6945 C.2       1 <0>        -0.2384
     14 C11         3.3202    2.8820    1.2246 C.2       1 <0>         0.0131
     15 C12         2.8041    2.8180    2.6448 C.3       1 <0>        -0.0971
     16 C13         1.5419    1.9426    2.6078 C.3       1 <0>        -0.1051
     17 C14         1.8801    0.5844    2.0662 C.3       1 <0>        -0.0425
     18 H2          2.4705    0.1164    2.8724 H         1 <0>         0.0738
     19 C15         0.7039   -0.3529    1.8869 C.3       1 <0>        -0.0730
     20 H3          1.0091   -1.3642    2.2121 H         1 <0>         0.0807
     21 C16        -0.4798    0.1041    2.7848 C.3       1 <0>        -0.1116
     22 C17        -1.6298   -0.7828    2.2405 C.3       1 <0>        -0.1657
     23 C18        -1.3772   -0.8486    0.7178 C.3       1 <0>         0.1050
     24 C19        -1.6606   -2.2612    0.2112 C.3       1 <0>         0.2367
     25 C20        -3.0893   -2.6603    0.5859 C.3       1 <0>         0.4232
     26 F1         -3.9930   -1.7775   -0.0153 F         1 <0>        -0.1543
     27 F2         -3.3421   -3.9619    0.1398 F         1 <0>        -0.1550
     28 F3         -3.2394   -2.6063    1.9758 F         1 <0>        -0.1514
     29 F4         -1.5164   -2.2954   -1.1799 F         1 <0>        -0.1487
     30 F5         -0.7580   -3.1560    0.7958 F         1 <0>        -0.1517
     31 O3         -2.2176    0.0926    0.0434 O.3       1 <0>        -0.5163
     32 C21         4.3981   -1.1093   -0.1617 C.ar      1 <0>        -0.0836
     33 C22         5.2971   -1.4726    0.8245 C.ar      1 <0>        -0.0855
     34 C23         6.6021   -1.7785    0.4928 C.ar      1 <0>        -0.0981
     35 C24         7.0117   -1.7212   -0.8340 C.ar      1 <0>        -0.0766
     36 C25         6.1055   -1.3561   -1.8224 C.ar      1 <0>        -0.1353
     37 C26         4.8007   -1.0567   -1.4838 C.ar      1 <0>        -0.0733
     38 S1          8.6761   -2.1100   -1.2620 S.3       1 <0>        -0.1180
     39 C27         8.7271   -1.8981   -3.0629 C.3       1 <0>        -0.1445
     40 H4          1.0673    1.3388   -0.1972 H         1 <0>         0.0707
     41 H5         -0.3797    0.8690   -1.1212 H         1 <0>         0.0641
     42 H6         -0.5527    1.6000    0.4925 H         1 <0>         0.0639
     43 H7          0.9261   -2.3516   -0.0195 H         1 <0>         0.0598
     44 H8          0.1909   -1.4493   -1.3721 H         1 <0>         0.1167
     45 H9          5.1671    1.5924   -0.7560 H         1 <0>         0.0803
     46 H10         3.7181    0.8833   -1.5341 H         1 <0>         0.0980
     47 H11         4.4031    3.1057   -2.4812 H         1 <0>         0.0945
     48 H12         2.7267    3.0228   -1.8876 H         1 <0>         0.0999
     49 H13         3.7246    4.9490    1.3160 H         1 <0>         0.1375
     50 H14         3.5518    2.3647    3.2925 H         1 <0>         0.0890
     51 H15         2.5531    3.8171    2.9947 H         1 <0>         0.0883
     52 H16         1.1539    1.8469    3.6246 H         1 <0>         0.0830
     53 H17         0.7933    2.4313    1.9885 H         1 <0>         0.0754
     54 H18        -0.2780   -0.1206    3.8325 H         1 <0>         0.0843
     55 H19        -0.7020    1.1594    2.6484 H         1 <0>         0.0877
     56 H20        -1.5772   -1.7822    2.6752 H         1 <0>         0.0963
     57 H21        -2.5976   -0.3291    2.4489 H         1 <0>         0.0929
     58 H22        -3.1619   -0.0339    0.2091 H         1 <0>         0.3795
     59 H23         4.9781   -1.5169    1.8554 H         1 <0>         0.1271
     60 H24         7.3038   -2.0614    1.2635 H         1 <0>         0.1303
     61 H25         6.4203   -1.3106   -2.8545 H         1 <0>         0.1253
     62 H26         4.0948   -0.7768   -2.2518 H         1 <0>         0.1351
     63 H27         8.4676   -0.8699   -3.3152 H         1 <0>         0.0851
     64 H28         9.7306   -2.1193   -3.4265 H         1 <0>         0.1104
     65 H29         8.0137   -2.5777   -3.5290 H         1 <0>         0.0850
@<TRIPOS>BOND
     1    1    2 1
     2    1   40 1
     3    1   41 1
     4    1   42 1
     5    2   19 1
     6    2   23 1
     7    2    3 1
     8    3    4 1
     9    3   43 1
    10    3   44 1
    11    4    5 1
    12    5    6 1
    13    5    7 1
    14    5   32 1
    15    7   17 1
    16    7    8 2
    17    8   14 1
    18    8    9 1
    19    9   10 1
    20    9   45 1
    21    9   46 1
    22   10   11 1
    23   10   47 1
    24   10   48 1
    25   11   12 2
    26   11   13 1
    27   13   14 2
    28   13   49 1
    29   14   15 1
    30   15   16 1
    31   15   50 1
    32   15   51 1
    33   16   17 1
    34   16   52 1
    35   16   53 1
    36   17   18 1
    37   17   19 1
    38   19   20 1
    39   19   21 1
    40   21   22 1
    41   21   54 1
    42   21   55 1
    43   22   23 1
    44   22   56 1
    45   22   57 1
    46   23   24 1
    47   23   31 1
    48   24   25 1
    49   24   29 1
    50   24   30 1
    51   25   26 1
    52   25   27 1
    53   25   28 1
    54   31   58 1
    55   32   37 ar
    56   32   33 ar
    57   33   34 ar
    58   33   59 1
    59   34   35 ar
    60   34   60 1
    61   35   36 ar
    62   35   38 1
    63   36   37 ar
    64   36   61 1
    65   37   62 1
    66   38   39 1
    67   39   63 1
    68   39   64 1
    69   39   65 1
@<TRIPOS>MOLECULE
CHEMBL258193
   47    50     0     0     0
SMALL
USER_CHARGES

@<TRIPOS>ATOM
      1 C1         -0.3194    1.3099   -0.2799 C.3       1 <0>        -0.1066
      2 C2         -0.2764   -0.1933   -0.1822 C.ar      1 <0>        -0.1545
      3 C3         -0.3750   -0.9584   -1.3237 C.ar      1 <0>        -0.0529
      4 C4         -0.3349   -2.3494   -1.2311 C.ar      1 <0>        -0.0866
      5 C5         -0.1971   -2.9588    0.0160 C.ar      1 <0>         0.0223
      6 C6         -0.0993   -2.1874    1.1600 C.ar      1 <0>        -0.1384
      7 C7         -0.1316   -0.8035    1.0605 C.ar      1 <0>         0.2356
      8 N1         -0.0202   -0.0011    2.2007 N.pl3     1 <0>        -0.7361
      9 C8         -0.1666   -0.6218    3.5241 C.3       1 <0>         0.1715
     10 C9          0.6481   -1.9219    3.5250 C.3       1 <0>        -0.1193
     11 C10         0.0433   -2.8775    2.4912 C.3       1 <0>        -0.0399
     12 C11         0.9673   -4.0871    2.3365 C.3       1 <0>        -0.1584
     13 C12        -1.6407   -0.9340    3.7898 C.3       1 <0>        -0.1618
     14 C13         0.3662    0.3243    4.6020 C.3       1 <0>        -0.1535
     15 Cl1        -0.1488   -4.6902    0.1328 Cl        1 <0>        -0.0544
     16 C14        -0.4388   -3.1780   -2.4545 C.ar      1 <0>         0.0084
     17 C15         0.5588   -3.1303   -3.4203 C.ar      1 <0>        -0.1325
     18 C16         0.4602   -3.9056   -4.5637 C.ar      1 <0>        -0.0978
     19 C17        -0.6235   -4.7344   -4.7639 C.ar      1 <0>        -0.1304
     20 C18        -1.6374   -4.8022   -3.8135 C.ar      1 <0>         0.0946
     21 C19        -1.5455   -4.0244   -2.6464 C.ar      1 <0>        -0.0841
     22 C20        -2.7433   -4.3244   -1.8625 C.2       1 <0>        -0.1914
     23 C21        -3.4542   -5.2255   -2.5607 C.2       1 <0>         0.0472
     24 N2         -2.8126   -5.5163   -3.7337 N.pl3     1 <0>        -0.5985
     25 H1         -3.1321   -6.1405   -4.4039 H         1 <0>         0.4147
     26 H2          0.6920    1.6945   -0.4117 H         1 <0>         0.0670
     27 H3         -0.9328    1.6012   -1.1325 H         1 <0>         0.0689
     28 H4         -0.7483    1.7214    0.6338 H         1 <0>         0.0612
     29 H5         -0.4833   -0.4825   -2.2872 H         1 <0>         0.1299
     30 H6          0.1513    0.9501    2.1190 H         1 <0>         0.4019
     31 H7          1.6847   -1.7035    3.2680 H         1 <0>         0.0720
     32 H8          0.6036   -2.3802    4.5130 H         1 <0>         0.0777
     33 H9         -0.9368   -3.2150    2.8283 H         1 <0>         0.0826
     34 H10         1.7117   -3.8797    1.5677 H         1 <0>         0.0585
     35 H11         1.4688   -4.2847    3.2839 H         1 <0>         0.0494
     36 H12         0.3798   -4.9585    2.0476 H         1 <0>         0.0740
     37 H13        -2.0101   -1.6196    3.0272 H         1 <0>         0.0628
     38 H14        -1.7432   -1.3942    4.7726 H         1 <0>         0.0653
     39 H15        -2.2189   -0.0105    3.7589 H         1 <0>         0.0579
     40 H16        -0.1970    1.2572    4.5772 H         1 <0>         0.0618
     41 H17         0.2550   -0.1413    5.5813 H         1 <0>         0.0737
     42 H18         1.4200    0.5310    4.4154 H         1 <0>         0.0629
     43 H19         1.4141   -2.4861   -3.2791 H         1 <0>         0.1224
     44 H20         1.2415   -3.8602   -5.3079 H         1 <0>         0.1258
     45 H21        -0.6856   -5.3324   -5.6611 H         1 <0>         0.1178
     46 H22        -3.0062   -3.9020   -0.9040 H         1 <0>         0.1408
     47 H23        -4.3965   -5.6499   -2.2473 H         1 <0>         0.1684
@<TRIPOS>BOND
     1    1    2 1
     2    1   26 1
     3    1   27 1
     4    1   28 1
     5    2    7 ar
     6    2    3 ar
     7    3    4 ar
     8    3   29 1
     9    4    5 ar
    10    4   16 1
    11    5    6 ar
    12    5   15 1
    13    6   11 1
    14    6    7 ar
    15    7    8 1
    16    8    9 1
    17    8   30 1
    18    9   10 1
    19    9   13 1
    20    9   14 1
    21   10   11 1
    22   10   31 1
    23   10   32 1
    24   11   12 1
    25   11   33 1
    26   12   34 1
    27   12   35 1
    28   12   36 1
    29   13   37 1
    30   13   38 1
    31   13   39 1
    32   14   40 1
    33   14   41 1
    34   14   42 1
    35   16   21 ar
    36   16   17 ar
    37   17   18 ar
    38   17   43 1
    39   18   19 ar
    40   18   44 1
    41   19   20 ar
    42   19   45 1
    43   20   24 1
    44   20   21 ar
    45   21   22 1
    46   22   23 2
    47   22   46 1
    48   23   24 1
    49   23   47 1
    50   24   25 1
@<TRIPOS>MOLECULE
CHEMBL258193__1
   47    50     0     0     0
SMALL
USER_CHARGES

@<TRIPOS>ATOM
      1 C1         -0.1483    1.5791    0.1584 C.3       1 <0>        -0.1033
      2 C2         -0.1215    0.0734    0.1008 C.ar      1 <0>        -0.1546
      3 C3         -0.1680   -0.5677   -1.1178 C.ar      1 <0>        -0.0530
      4 C4         -0.1422   -1.9613   -1.1689 C.ar      1 <0>        -0.0864
      5 C5         -0.0678   -2.6984    0.0129 C.ar      1 <0>         0.0224
      6 C6         -0.0203   -2.0512    1.2345 C.ar      1 <0>        -0.1380
      7 C7         -0.0439   -0.6643    1.2788 C.ar      1 <0>         0.2357
      8 N1         -0.0011    0.0136    2.5014 N.pl3     1 <0>        -0.7367
      9 C8          0.3770   -0.7272    3.7123 C.3       1 <0>         0.1726
     10 C9         -0.3793   -2.0621    3.7008 C.3       1 <0>        -0.1197
     11 C10         0.0650   -2.8772    2.4911 C.3       1 <0>        -0.0403
     12 C11        -0.8265   -4.1120    2.3452 C.3       1 <0>        -0.1567
     13 C12        -0.0110    0.0775    4.9544 C.3       1 <0>        -0.1534
     14 C13         1.8850   -0.9861    3.7117 C.3       1 <0>        -0.1617
     15 Cl1        -0.0351   -4.4330   -0.0494 Cl        1 <0>        -0.0544
     16 C14        -0.1944   -2.6570   -2.4755 C.ar      1 <0>         0.0083
     17 C15         0.8479   -2.5214   -3.3840 C.ar      1 <0>        -0.1326
     18 C16         0.7976   -3.1726   -4.6054 C.ar      1 <0>        -0.0979
     19 C17        -0.2813   -3.9630   -4.9406 C.ar      1 <0>        -0.1304
     20 C18        -1.3394   -4.1169   -4.0502 C.ar      1 <0>         0.0946
     21 C19        -1.2968   -3.4656   -2.8054 C.ar      1 <0>        -0.0839
     22 C20        -2.5324   -3.8309   -2.1131 C.2       1 <0>        -0.1912
     23 C21        -3.2160   -4.6460   -2.9335 C.2       1 <0>         0.0470
     24 N2         -2.5220   -4.8212   -4.0996 N.pl3     1 <0>        -0.5983
     25 H1         -2.8141   -5.3685   -4.8452 H         1 <0>         0.4147
     26 H2          0.8712    1.9625    0.1176 H         1 <0>         0.0683
     27 H3         -0.7159    1.9650   -0.6884 H         1 <0>         0.0684
     28 H4         -0.6198    1.8988    1.0878 H         1 <0>         0.0581
     29 H5         -0.2245    0.0069   -2.0304 H         1 <0>         0.1300
     30 H6         -0.2172    0.9580    2.5490 H         1 <0>         0.4013
     31 H7         -0.1611   -2.6134    4.6154 H         1 <0>         0.0781
     32 H8         -1.4508   -1.8741    3.6322 H         1 <0>         0.0706
     33 H9          1.0965   -3.1948    2.6435 H         1 <0>         0.0803
     34 H10        -0.2573   -4.9184    1.8827 H         1 <0>         0.0743
     35 H11        -1.1719   -4.4291    3.3292 H         1 <0>         0.0491
     36 H12        -1.6853   -3.8683    1.7198 H         1 <0>         0.0591
     37 H13        -1.0879    0.2458    4.9564 H         1 <0>         0.0627
     38 H14         0.2718   -0.4768    5.8494 H         1 <0>         0.0738
     39 H15         0.5067    1.0366    4.9423 H         1 <0>         0.0620
     40 H16         2.4169   -0.0350    3.6902 H         1 <0>         0.0582
     41 H17         2.1596   -1.5358    4.6119 H         1 <0>         0.0654
     42 H18         2.1526   -1.5720    2.8324 H         1 <0>         0.0625
     43 H19         1.7002   -1.9057   -3.1372 H         1 <0>         0.1225
     44 H20         1.6135   -3.0596   -5.3040 H         1 <0>         0.1258
     45 H21        -0.3054   -4.4638   -5.8972 H         1 <0>         0.1178
     46 H22        -2.8371   -3.5071   -1.1289 H         1 <0>         0.1407
     47 H23        -4.1751   -5.0893   -2.7097 H         1 <0>         0.1684
@<TRIPOS>BOND
     1    1    2 1
     2    1   26 1
     3    1   27 1
     4    1   28 1
     5    2    7 ar
     6    2    3 ar
     7    3    4 ar
     8    3   29 1
     9    4    5 ar
    10    4   16 1
    11    5    6 ar
    12    5   15 1
    13    6   11 1
    14    6    7 ar
    15    7    8 1
    16    8    9 1
    17    8   30 1
    18    9   10 1
    19    9   13 1
    20    9   14 1
    21   10   11 1
    22   10   31 1
    23   10   32 1
    24   11   12 1
    25   11   33 1
    26   12   34 1
    27   12   35 1
    28   12   36 1
    29   13   37 1
    30   13   38 1
    31   13   39 1
    32   14   40 1
    33   14   41 1
    34   14   42 1
    35   16   21 ar
    36   16   17 ar
    37   17   18 ar
    38   17   43 1
    39   18   19 ar
    40   18   44 1
    41   19   20 ar
    42   19   45 1
    43   20   24 1
    44   20   21 ar
    45   21   22 1
    46   22   23 2
    47   22   46 1
    48   23   24 1
    49   23   47 1
    50   24   25 1
@<TRIPOS>MOLECULE
CHEMBL196347
   51    55     0     0     0
SMALL
USER_CHARGES

@<TRIPOS>ATOM
      1 C1          0.1033    1.5961   -0.0362 C.3       1 <0>        -0.1516
      2 C2          0.0507    0.0675    0.0013 C.3       1 <0>        -0.0109
      3 C3         -1.4257   -0.3603   -0.0219 C.3       1 <0>        -0.0354
      4 C4         -1.9261   -1.1649    1.1559 C.2       1 <0>        -0.2165
      5 C5         -3.1804   -1.6793    1.4731 C.2       1 <0>         0.0701
      6 N1         -3.0974   -2.3044    2.6211 N.2       1 <0>        -0.2796
      7 N2         -1.7807   -2.2158    3.0884 N.pl3     1 <0>        -0.3211
      8 C6         -1.0550   -1.5085    2.1659 C.2       1 <0>         0.1193
      9 C7          0.3626   -1.1316    2.1293 C.2       1 <0>        -0.1244
     10 C8          0.8938   -0.4038    1.1665 C.2       1 <0>        -0.0476
     11 C9          2.3663   -0.0677    1.1714 C.3       1 <0>        -0.0840
     12 C10         2.9715   -0.5407   -0.1559 C.3       1 <0>        -0.1111
     13 C11         2.1700    0.0459   -1.3190 C.3       1 <0>        -0.1359
     14 C12         0.7259   -0.4565   -1.2667 C.3       1 <0>        -0.1043
     15 H1          0.7203   -1.5464   -1.2576 H         1 <0>         0.0860
     16 C13        -0.0344    0.0475   -2.4951 C.3       1 <0>         0.1936
     17 H2         -1.0893   -0.2101   -2.4004 H         1 <0>         0.1255
     18 C14         0.5307   -0.5965   -3.7348 C.2       1 <0>        -0.1764
     19 C15         0.0518   -1.6470   -4.4450 C.2       1 <0>        -0.1486
     20 C16         0.7444   -2.0716   -5.5633 C.2       1 <0>        -0.1564
     21 C17         1.8820   -1.4249   -5.9168 C.2       1 <0>        -0.1724
     22 S1          2.0004   -0.1689   -4.6536 S.3       1 <0>         0.0426
     23 O1          0.1026    1.4667   -2.5909 O.3       1 <0>        -0.5402
     24 C18        -1.2918   -2.7547    4.2859 C.ar      1 <0>         0.1481
     25 C19         0.0041   -3.2497    4.3476 C.ar      1 <0>        -0.1049
     26 C20         0.4842   -3.7800    5.5289 C.ar      1 <0>        -0.1304
     27 C21        -0.3259   -3.8184    6.6515 C.ar      1 <0>         0.0974
     28 C22        -1.6188   -3.3257    6.5919 C.ar      1 <0>        -0.1318
     29 C23        -2.1007   -2.7894    5.4141 C.ar      1 <0>        -0.0829
     30 F1          0.1456   -4.3376    7.8062 F         1 <0>        -0.1333
     31 H3          1.1133    1.9188   -0.2891 H         1 <0>         0.0615
     32 H4         -0.5949    1.9654   -0.7874 H         1 <0>         0.0889
     33 H5         -0.1710    1.9932    0.9411 H         1 <0>         0.0493
     34 H6         -2.0351    0.5404   -0.0964 H         1 <0>         0.0792
     35 H7         -1.5907   -0.9485   -0.9247 H         1 <0>         0.0722
     36 H8         -4.0727   -1.5792    0.8730 H         1 <0>         0.1906
     37 H9          0.9984   -1.4486    2.9427 H         1 <0>         0.1183
     38 H10         2.4971    1.0097    1.2717 H         1 <0>         0.0845
     39 H11         2.8568   -0.5769    2.0011 H         1 <0>         0.0757
     40 H12         4.0068   -0.2064   -0.2229 H         1 <0>         0.0725
     41 H13         2.9372   -1.6292   -0.2035 H         1 <0>         0.0658
     42 H14         2.1771    1.1337   -1.2507 H         1 <0>         0.0758
     43 H15         2.6249   -0.2585   -2.2616 H         1 <0>         0.0747
     44 H16        -0.8571   -2.1451   -4.1414 H         1 <0>         0.1333
     45 H17         0.3847   -2.9064   -6.1466 H         1 <0>         0.1347
     46 H18         2.5430   -1.6170   -6.7490 H         1 <0>         0.1861
     47 H19         1.0171    1.7686   -2.6776 H         1 <0>         0.3732
     48 H20         0.6360   -3.2202    3.4723 H         1 <0>         0.1421
     49 H21         1.4920   -4.1653    5.5772 H         1 <0>         0.1471
     50 H22        -2.2491   -3.3569    7.4683 H         1 <0>         0.1470
     51 H23        -3.1074   -2.4008    5.3693 H         1 <0>         0.1446
@<TRIPOS>BOND
     1    1    2 1
     2    1   31 1
     3    1   32 1
     4    1   33 1
     5    2   10 1
     6    2   14 1
     7    2    3 1
     8    3    4 1
     9    3   34 1
    10    3   35 1
    11    4    8 2
    12    4    5 1
    13    5    6 2
    14    5   36 1
    15    6    7 1
    16    7    8 1
    17    7   24 1
    18    8    9 1
    19    9   10 2
    20    9   37 1
    21   10   11 1
    22   11   12 1
    23   11   38 1
    24   11   39 1
    25   12   13 1
    26   12   40 1
    27   12   41 1
    28   13   14 1
    29   13   42 1
    30   13   43 1
    31   14   15 1
    32   14   16 1
    33   16   17 1
    34   16   18 1
    35   16   23 1
    36   18   22 1
    37   18   19 2
    38   19   20 1
    39   19   44 1
    40   20   21 2
    41   20   45 1
    42   21   22 1
    43   21   46 1
    44   23   47 1
    45   24   29 ar
    46   24   25 ar
    47   25   26 ar
    48   25   48 1
    49   26   27 ar
    50   26   49 1
    51   27   28 ar
    52   27   30 1
    53   28   29 ar
    54   28   50 1
    55   29   51 1
@<TRIPOS>MOLECULE
CHEMBL72182
   45    48     0     0     0
SMALL
USER_CHARGES

@<TRIPOS>ATOM
      1 C1         -1.2074    1.5113   -0.3898 C.3       1 <0>        -0.6383
      2 S1         -0.9566   -0.2850   -0.3580 S.o2      1 <0>         2.5263
      3 O1         -0.1917   -0.6523    0.7818 O.2       1 <0>        -1.0282
      4 O2         -2.1729   -0.9545   -0.6606 O.2       1 <0>        -1.0284
      5 N1          0.0314   -0.5997   -1.6492 N.2       1 <0>        -1.0932
      6 C2          0.4289   -1.9095   -1.9208 C.ar      1 <0>         0.3255
      7 C3         -0.0112   -2.9497   -1.1082 C.ar      1 <0>        -0.2863
      8 C4          0.3827   -4.2471   -1.3644 C.ar      1 <0>        -0.0160
      9 C5          1.2261   -4.5140   -2.4356 C.ar      1 <0>        -0.2233
     10 C6          1.6568   -3.4681   -3.2666 C.ar      1 <0>         0.2579
     11 C7          1.2580   -2.1704   -3.0050 C.ar      1 <0>        -0.2401
     12 N2          2.4633   -3.7700   -4.3648 N.pl3     1 <0>        -0.6328
     13 C8          3.3950   -4.8999   -4.2870 C.3       1 <0>         0.1858
     14 C9          2.7159   -6.0853   -3.6509 C.ar      1 <0>        -0.1246
     15 C10         1.6757   -5.8917   -2.7412 C.ar      1 <0>         0.0328
     16 C11         1.0687   -6.9875   -2.1346 C.ar      1 <0>        -0.1379
     17 C12         1.4900   -8.2647   -2.4482 C.ar      1 <0>        -0.1113
     18 C13         2.5109   -8.4532   -3.3622 C.ar      1 <0>        -0.1543
     19 C14         3.1224   -7.3665   -3.9618 C.ar      1 <0>        -0.1043
     20 C15         2.3802   -2.9643   -5.5855 C.3       1 <0>         0.1706
     21 C16         1.2579   -3.4774   -6.4506 C.ar      1 <0>        -0.0994
     22 C17         1.4894   -4.5055   -7.3451 C.ar      1 <0>        -0.1067
     23 C18         0.4599   -4.9761   -8.1386 C.ar      1 <0>        -0.1280
     24 C19        -0.8011   -4.4188   -8.0373 C.ar      1 <0>        -0.1241
     25 C20        -1.0327   -3.3913   -7.1420 C.ar      1 <0>        -0.1217
     26 C21        -0.0043   -2.9236   -6.3455 C.ar      1 <0>        -0.0940
     27 H1         -0.2452    2.0142   -0.2933 H         1 <0>         0.1151
     28 H2         -1.6734    1.7964   -1.3330 H         1 <0>         0.1149
     29 H3         -1.8542    1.8025    0.4377 H         1 <0>         0.1010
     30 H4         -0.6636   -2.7407   -0.2733 H         1 <0>         0.1020
     31 H5          0.0366   -5.0527   -0.7338 H         1 <0>         0.1046
     32 H6          1.5928   -1.3622   -3.6383 H         1 <0>         0.1138
     33 H7          3.7239   -5.1673   -5.2912 H         1 <0>         0.0735
     34 H8          4.2603   -4.6147   -3.6887 H         1 <0>         0.0582
     35 H9          0.2716   -6.8395   -1.4211 H         1 <0>         0.1196
     36 H10         1.0221   -9.1174   -1.9789 H         1 <0>         0.1135
     37 H11         2.8322   -9.4543   -3.6096 H         1 <0>         0.1119
     38 H12         3.9192   -7.5213   -4.6743 H         1 <0>         0.1137
     39 H13         2.1894   -1.9240   -5.3219 H         1 <0>         0.0857
     40 H14         3.3210   -3.0341   -6.1316 H         1 <0>         0.0755
     41 H15         2.4745   -4.9409   -7.4244 H         1 <0>         0.1140
     42 H16         0.6409   -5.7789   -8.8381 H         1 <0>         0.1150
     43 H17        -1.6052   -4.7860   -8.6577 H         1 <0>         0.1153
     44 H18        -2.0178   -2.9557   -7.0631 H         1 <0>         0.1190
     45 H19        -0.1862   -2.1233   -5.6434 H         1 <0>         0.1276
@<TRIPOS>BOND
     1    1    2 1
     2    1   27 1
     3    1   28 1
     4    1   29 1
     5    2    3 2
     6    2    4 2
     7    2    5 1
     8    5    6 1
     9    6   11 ar
    10    6    7 ar
    11    7    8 ar
    12    7   30 1
    13    8    9 ar
    14    8   31 1
    15    9   15 1
    16    9   10 ar
    17   10   11 ar
    18   10   12 1
    19   11   32 1
    20   12   13 1
    21   12   20 1
    22   13   14 1
    23   13   33 1
    24   13   34 1
    25   14   19 ar
    26   14   15 ar
    27   15   16 ar
    28   16   17 ar
    29   16   35 1
    30   17   18 ar
    31   17   36 1
    32   18   19 ar
    33   18   37 1
    34   19   38 1
    35   20   21 1
    36   20   39 1
    37   20   40 1
    38   21   26 ar
    39   21   22 ar
    40   22   23 ar
    41   22   41 1
    42   23   24 ar
    43   23   42 1
    44   24   25 ar
    45   24   43 1
    46   25   26 ar
    47   25   44 1
    48   26   45 1
@<TRIPOS>MOLECULE
CHEMBL72182__1
   46    49     0     0     0
SMALL
USER_CHARGES

@<TRIPOS>ATOM
      1 C1          1.0733   -2.4756    0.4324 C.3       1 <0>        -0.6717
      2 S1          0.2176   -0.9094    0.1080 S.o2      1 <0>         2.6078
      3 O1         -1.1491   -1.1522   -0.1961 O.2       1 <0>        -0.9539
      4 O2          0.5820    0.0584    1.0826 O.2       1 <0>        -0.9453
      5 N1          0.8727   -0.3517   -1.3069 N.pl3     1 <0>        -1.0646
      6 C2          2.2250   -0.0117   -1.3634 C.ar      1 <0>         0.1593
      7 C3          2.6669    1.1716   -0.7799 C.ar      1 <0>        -0.1412
      8 C4          4.0009    1.5199   -0.8373 C.ar      1 <0>        -0.0618
      9 C5          4.9047    0.6870   -1.4850 C.ar      1 <0>        -0.0948
     10 C6          4.4634   -0.5155   -2.0588 C.ar      1 <0>         0.2246
     11 C7          3.1256   -0.8590   -1.9972 C.ar      1 <0>        -0.1786
     12 N2          5.4001   -1.3575   -2.6600 N.pl3     1 <0>        -0.6265
     13 C8          6.5797   -0.7774   -3.3100 C.3       1 <0>         0.1752
     14 C9          7.1637    0.3090   -2.4440 C.ar      1 <0>        -0.0986
     15 C10         6.3435    1.0270   -1.5729 C.ar      1 <0>        -0.0252
     16 C11         6.8805    2.0481   -0.7943 C.ar      1 <0>        -0.1092
     17 C12         8.2286    2.3362   -0.8772 C.ar      1 <0>        -0.1144
     18 C13         9.0413    1.6119   -1.7304 C.ar      1 <0>        -0.1181
     19 C14         8.5103    0.6011   -2.5119 C.ar      1 <0>        -0.1082
     20 C15         5.2062   -2.8095   -2.6422 C.3       1 <0>         0.1664
     21 C16         5.9403   -3.4000   -1.4659 C.ar      1 <0>        -0.1093
     22 C17         7.2802   -3.7209   -1.5778 C.ar      1 <0>        -0.1037
     23 C18         7.9536   -4.2625   -0.4988 C.ar      1 <0>        -0.1191
     24 C19         7.2871   -4.4828    0.6921 C.ar      1 <0>        -0.1154
     25 C20         5.9475   -4.1609    0.8042 C.ar      1 <0>        -0.1198
     26 C21         5.2751   -3.6153   -0.2734 C.ar      1 <0>        -0.1044
     27 H1          0.9331   -3.1483   -0.4137 H         1 <0>         0.1301
     28 H2          2.1373   -2.2859    0.5734 H         1 <0>         0.1282
     29 H3          0.6635   -2.9338    1.3326 H         1 <0>         0.1330
     30 H4          0.3165   -0.2613   -2.0965 H         1 <0>         0.4262
     31 H5          1.9627    1.8204   -0.2802 H         1 <0>         0.1376
     32 H6          4.3413    2.4373   -0.3804 H         1 <0>         0.1333
     33 H7          2.7813   -1.7803   -2.4435 H         1 <0>         0.1320
     34 H8          7.3263   -1.5560   -3.4662 H         1 <0>         0.0873
     35 H9          6.2915   -0.3564   -4.2733 H         1 <0>         0.0706
     36 H10         6.2454    2.6132   -0.1283 H         1 <0>         0.1268
     37 H11         8.6487    3.1284   -0.2753 H         1 <0>         0.1252
     38 H12        10.0963    1.8362   -1.7865 H         1 <0>         0.1239
     39 H13         9.1509    0.0399   -3.1761 H         1 <0>         0.1243
     40 H14         4.1428   -3.0330   -2.5562 H         1 <0>         0.0861
     41 H15         5.5943   -3.2392   -3.5656 H         1 <0>         0.0849
     42 H16         7.8008   -3.5489   -2.5082 H         1 <0>         0.1185
     43 H17         9.0002   -4.5140   -0.5864 H         1 <0>         0.1220
     44 H18         7.8131   -4.9066    1.5348 H         1 <0>         0.1218
     45 H19         5.4267   -4.3333    1.7345 H         1 <0>         0.1218
     46 H20         4.2294   -3.3605   -0.1847 H         1 <0>         0.1168
@<TRIPOS>BOND
     1    1    2 1
     2    1   27 1
     3    1   28 1
     4    1   29 1
     5    2    3 2
     6    2    4 2
     7    2    5 1
     8    5    6 1
     9    5   30 1
    10    6   11 ar
    11    6    7 ar
    12    7    8 ar
    13    7   31 1
    14    8    9 ar
    15    8   32 1
    16    9   15 1
    17    9   10 ar
    18   10   11 ar
    19   10   12 1
    20   11   33 1
    21   12   13 1
    22   12   20 1
    23   13   14 1
    24   13   34 1
    25   13   35 1
    26   14   19 ar
    27   14   15 ar
    28   15   16 ar
    29   16   17 ar
    30   16   36 1
    31   17   18 ar
    32   17   37 1
    33   18   19 ar
    34   18   38 1
    35   19   39 1
    36   20   21 1
    37   20   40 1
    38   20   41 1
    39   21   26 ar
    40   21   22 ar
    41   22   23 ar
    42   22   42 1
    43   23   24 ar
    44   23   43 1
    45   24   25 ar
    46   24   44 1
    47   25   26 ar
    48   25   45 1
    49   26   46 1
@<TRIPOS>MOLECULE
CHEMBL394168
   64    67     0     0     0
SMALL
USER_CHARGES

@<TRIPOS>ATOM
      1 C1         -2.3776   -1.2617   -1.8771 C.3       1 <0>        -0.2677
      2 C2         -1.8226    0.0077   -1.2279 C.3       1 <0>        -0.1472
      3 C3         -0.3022   -0.1074   -1.1006 C.3       1 <0>        -0.0153
      4 C4          0.1985    0.9257   -0.0934 C.3       1 <0>        -0.1239
      5 C5          0.0262    2.3209   -0.7054 C.3       1 <0>        -0.1171
      6 C6          1.0300    2.4735   -1.8465 C.3       1 <0>        -0.0803
      7 C7          0.9361    1.3061   -2.7938 C.ar      1 <0>        -0.1007
      8 C8          0.3277    0.1196   -2.4500 C.ar      1 <0>        -0.0820
      9 C9          0.2809   -0.9207   -3.3687 C.ar      1 <0>        -0.4351
     10 C10         0.8356   -0.7736   -4.6235 C.ar      1 <0>        -0.1740
     11 C11         1.4428    0.4188   -4.9700 C.ar      1 <0>        -0.1097
     12 C12         1.4921    1.4529   -4.0579 C.ar      1 <0>        -0.1520
     13 C13         0.0578   -1.5095   -0.6053 C.3       1 <0>        -0.1336
     14 C14        -0.8042   -2.5440   -1.3316 C.3       1 <0>         0.1176
     15 C15         0.0435   -3.7749   -1.6589 C.3       1 <0>         0.0851
     16 N1         -0.7051   -4.6590   -2.5557 N.am      1 <0>        -0.7284
     17 C16        -0.1952   -5.8582   -2.8999 C.2       1 <0>         0.6144
     18 O1          0.8869   -6.2065   -2.4659 O.2       1 <0>        -0.5599
     19 C17        -0.9452   -6.7439   -3.7983 C.2       1 <0>        -0.3727
     20 C18        -2.2050   -6.4772   -4.3849 C.2       1 <0>         0.1207
     21 N2         -2.5394   -7.5024   -5.1168 N.2       1 <0>        -0.2910
     22 N3         -1.5313   -8.4696   -5.0437 N.pl3     1 <0>        -0.3480
     23 C19        -0.5493   -8.0044   -4.2402 C.2       1 <0>         0.4466
     24 N4          0.6230   -8.6561   -3.9161 N.pl3     1 <0>        -0.8253
     25 C20        -1.5364   -9.7090   -5.6976 C.ar      1 <0>         0.1531
     26 C21        -0.3479  -10.2534   -6.1658 C.ar      1 <0>        -0.1487
     27 C22        -0.3561  -11.4754   -6.8095 C.ar      1 <0>        -0.0919
     28 C23        -1.5462  -12.1564   -6.9883 C.ar      1 <0>        -0.1209
     29 C24        -2.7314  -11.6169   -6.5231 C.ar      1 <0>        -0.0948
     30 C25        -2.7290  -10.3979   -5.8735 C.ar      1 <0>        -0.1074
     31 C26        -1.3447   -1.9376   -2.6281 C.3       1 <0>        -0.1479
     32 F1         -0.6575   -2.4806   -3.7190 F         1 <0>        -0.0596
     33 F2         -2.7085   -2.2269   -2.7452 F         1 <0>         0.0756
     34 F3         -1.1625   -0.5507   -2.6057 F         1 <0>         0.0995
     35 O2         -1.8963   -2.9270   -0.4934 O.3       1 <0>        -0.5058
     36 H1         -2.2154   -1.2197   -2.9541 H         1 <0>         0.2910
     37 H2         -1.8670   -2.1329   -1.4664 H         1 <0>         0.2451
     38 H3         -3.4457   -1.3370   -1.6731 H         1 <0>         0.0507
     39 H4         -2.0712    0.8704   -1.8459 H         1 <0>         0.0637
     40 H5         -2.2617    0.1313   -0.2379 H         1 <0>         0.0142
     41 H6         -0.3826    0.8538    0.8260 H         1 <0>         0.0690
     42 H7          1.2519    0.7472    0.1227 H         1 <0>         0.0623
     43 H8         -0.9875    2.4300   -1.0911 H         1 <0>         0.0662
     44 H9          0.2145    3.0805    0.0533 H         1 <0>         0.0654
     45 H10         0.8197    3.3949   -2.3895 H         1 <0>         0.0656
     46 H11         2.0379    2.5219   -1.4344 H         1 <0>         0.0699
     47 H12        -0.1933   -1.8527   -3.0987 H         1 <0>         0.3706
     48 H13         0.7958   -1.5874   -5.3323 H         1 <0>         0.1085
     49 H14         1.8775    0.5405   -5.9511 H         1 <0>         0.1068
     50 H15         1.9670    2.3842   -4.3292 H         1 <0>         0.1071
     51 H16         1.1105   -1.7072   -0.8077 H         1 <0>         0.0973
     52 H17        -0.1242   -1.5737    0.4675 H         1 <0>         0.1052
     53 H18         0.9669   -3.4611   -2.1457 H         1 <0>         0.0950
     54 H19         0.2810   -4.3078   -0.7382 H         1 <0>         0.1021
     55 H20        -1.5677   -4.3814   -2.9016 H         1 <0>         0.4007
     56 H21        -2.7890   -5.5789   -4.2493 H         1 <0>         0.1939
     57 H22         1.2654   -8.2335   -3.3248 H         1 <0>         0.4320
     58 H23         0.8046   -9.5369   -4.2796 H         1 <0>         0.4041
     59 H24         0.5818   -9.7217   -6.0272 H         1 <0>         0.1292
     60 H25         0.5680  -11.8993   -7.1739 H         1 <0>         0.1354
     61 H26        -1.5501  -13.1114   -7.4925 H         1 <0>         0.1321
     62 H27        -3.6594  -12.1509   -6.6645 H         1 <0>         0.1353
     63 H28        -3.6544   -9.9792   -5.5064 H         1 <0>         0.1373
     64 H29        -1.6289   -3.2492    0.3783 H         1 <0>         0.3726
@<TRIPOS>BOND
     1    1    2 1
     2    1   36 1
     3    1   37 1
     4    1   38 1
     5    2    3 1
     6    2   39 1
     7    2   40 1
     8    3    8 1
     9    3    4 1
    10    3   13 1
    11    4    5 1
    12    4   41 1
    13    4   42 1
    14    5    6 1
    15    5   43 1
    16    5   44 1
    17    6    7 1
    18    6   45 1
    19    6   46 1
    20    7   12 ar
    21    7    8 ar
    22    8    9 ar
    23    9   10 ar
    24    9   47 1
    25   10   11 ar
    26   10   48 1
    27   11   12 ar
    28   11   49 1
    29   12   50 1
    30   13   14 1
    31   13   51 1
    32   13   52 1
    33   14   15 1
    34   14   31 1
    35   14   35 1
    36   15   16 1
    37   15   53 1
    38   15   54 1
    39   16   17 am
    40   16   55 1
    41   17   18 2
    42   17   19 1
    43   19   23 2
    44   19   20 1
    45   20   21 2
    46   20   56 1
    47   21   22 1
    48   22   23 1
    49   22   25 1
    50   23   24 1
    51   24   57 1
    52   24   58 1
    53   25   30 ar
    54   25   26 ar
    55   26   27 ar
    56   26   59 1
    57   27   28 ar
    58   27   60 1
    59   28   29 ar
    60   28   61 1
    61   29   30 ar
    62   29   62 1
    63   30   63 1
    64   31   32 1
    65   31   33 1
    66   31   34 1
    67   35   64 1
@<TRIPOS>MOLECULE
CHEMBL394168__1
   64    67     0     0     0
SMALL
USER_CHARGES

@<TRIPOS>ATOM
      1 C1          2.5204   -0.6844   -2.9777 C.3       1 <0>        -0.1581
      2 C2          2.2452   -0.1867   -1.5573 C.3       1 <0>        -0.1090
      3 C3          0.7964   -0.5007   -1.1786 C.3       1 <0>        -0.0114
      4 C4         -0.1410    0.1359   -2.2026 C.3       1 <0>        -0.1440
      5 C5         -0.0811    1.6585   -2.0324 C.3       1 <0>        -0.1222
      6 C6         -0.7557    2.0221   -0.7111 C.3       1 <0>        -0.0819
      7 C7         -0.1931    1.1956    0.4156 C.ar      1 <0>        -0.0486
      8 C8          0.5164    0.0351    0.2011 C.ar      1 <0>        -0.0779
      9 C9          1.0027   -0.6839    1.2850 C.ar      1 <0>        -0.1143
     10 C10         0.7838   -0.2430    2.5740 C.ar      1 <0>        -0.1248
     11 C11         0.0751    0.9240    2.7892 C.ar      1 <0>        -0.1163
     12 C12        -0.4106    1.6387    1.7136 C.ar      1 <0>        -0.1298
     13 C13         0.5915   -2.0169   -1.1822 C.3       1 <0>        -0.1494
     14 C14        -0.8832   -2.3316   -1.4415 C.3       1 <0>         0.0878
     15 C15        -1.0816   -3.8481   -1.4822 C.3       1 <0>         0.0949
     16 N1         -2.4936   -4.1494   -1.7306 N.am      1 <0>        -0.7290
     17 C16        -2.9059   -5.4302   -1.8078 C.2       1 <0>         0.6108
     18 O1         -2.1053   -6.3364   -1.6712 O.2       1 <0>        -0.5660
     19 C17        -4.3204   -5.7321   -2.0566 C.2       1 <0>        -0.3710
     20 C18        -5.3620   -4.7921   -2.2415 C.2       1 <0>         0.1226
     21 N2         -6.4721   -5.4465   -2.4361 N.2       1 <0>        -0.2932
     22 N3         -6.2121   -6.8202   -2.3883 N.pl3     1 <0>        -0.3488
     23 C19        -4.8918   -6.9983   -2.1616 C.2       1 <0>         0.4451
     24 N4         -4.2341   -8.2064   -2.0517 N.pl3     1 <0>        -0.8256
     25 C20        -7.1597   -7.8394   -2.5533 C.ar      1 <0>         0.1541
     26 C21        -6.8041   -9.0245   -3.1835 C.ar      1 <0>        -0.1489
     27 C22        -7.7401  -10.0273   -3.3443 C.ar      1 <0>        -0.0920
     28 C23        -9.0303   -9.8519   -2.8787 C.ar      1 <0>        -0.1214
     29 C24        -9.3875   -8.6729   -2.2506 C.ar      1 <0>        -0.0947
     30 C25        -8.4544   -7.6686   -2.0818 C.ar      1 <0>        -0.1080
     31 C26        -1.7367   -1.7355   -0.3203 C.3       1 <0>         0.4621
     32 F1         -1.7446   -0.3409   -0.4314 F         1 <0>        -0.1456
     33 F2         -3.0455   -2.2189   -0.4233 F         1 <0>        -0.1777
     34 F3         -1.2005   -2.1016    0.9189 F         1 <0>        -0.1638
     35 O2         -1.2780   -1.7658   -2.6929 O.3       1 <0>        -0.5225
     36 H1          2.3375   -1.7577   -3.0284 H         1 <0>         0.0552
     37 H2          1.8613   -0.1700   -3.6770 H         1 <0>         0.0628
     38 H3          3.5586   -0.4800   -3.2395 H         1 <0>         0.0548
     39 H4          2.9191   -0.6854   -0.8606 H         1 <0>         0.0621
     40 H5          2.4074    0.8902   -1.5118 H         1 <0>         0.0691
     41 H6          0.1776   -0.1338   -3.2095 H         1 <0>         0.0672
     42 H7         -1.1600   -0.2126   -2.0339 H         1 <0>         0.1308
     43 H8          0.9586    1.9854   -2.0159 H         1 <0>         0.0600
     44 H9         -0.6053    2.1411   -2.8572 H         1 <0>         0.0639
     45 H10        -0.5880    3.0783   -0.5007 H         1 <0>         0.0682
     46 H11        -1.8270    1.8379   -0.7919 H         1 <0>         0.0777
     47 H12         1.5565   -1.5959    1.1177 H         1 <0>         0.1188
     48 H13         1.1647   -0.8080    3.4120 H         1 <0>         0.1185
     49 H14        -0.0982    1.2749    3.7958 H         1 <0>         0.1186
     50 H15        -0.9646    2.5503    1.8826 H         1 <0>         0.1177
     51 H16         1.2018   -2.4642   -1.9667 H         1 <0>         0.1013
     52 H17         0.8856   -2.4256   -0.2155 H         1 <0>         0.0961
     53 H18        -0.4735   -4.2728   -2.2810 H         1 <0>         0.0933
     54 H19        -0.7804   -4.2797   -0.5277 H         1 <0>         0.0880
     55 H20        -3.1318   -3.4271   -1.8394 H         1 <0>         0.4083
     56 H21        -5.2554   -3.7176   -2.2239 H         1 <0>         0.1925
     57 H22        -3.2788   -8.2251   -1.8846 H         1 <0>         0.4319
     58 H23        -4.7271   -9.0369   -2.1416 H         1 <0>         0.4036
     59 H24        -5.7968   -9.1618   -3.5480 H         1 <0>         0.1292
     60 H25        -7.4641  -10.9493   -3.8344 H         1 <0>         0.1354
     61 H26        -9.7606  -10.6373   -3.0062 H         1 <0>         0.1320
     62 H27       -10.3960   -8.5387   -1.8884 H         1 <0>         0.1351
     63 H28        -8.7328   -6.7497   -1.5872 H         1 <0>         0.1369
     64 H29        -0.8387   -2.1600   -3.4589 H         1 <0>         0.3898
@<TRIPOS>BOND
     1    1    2 1
     2    1   36 1
     3    1   37 1
     4    1   38 1
     5    2    3 1
     6    2   39 1
     7    2   40 1
     8    3    8 1
     9    3    4 1
    10    3   13 1
    11    4    5 1
    12    4   41 1
    13    4   42 1
    14    5    6 1
    15    5   43 1
    16    5   44 1
    17    6    7 1
    18    6   45 1
    19    6   46 1
    20    7   12 ar
    21    7    8 ar
    22    8    9 ar
    23    9   10 ar
    24    9   47 1
    25   10   11 ar
    26   10   48 1
    27   11   12 ar
    28   11   49 1
    29   12   50 1
    30   13   14 1
    31   13   51 1
    32   13   52 1
    33   14   15 1
    34   14   31 1
    35   14   35 1
    36   15   16 1
    37   15   53 1
    38   15   54 1
    39   16   17 am
    40   16   55 1
    41   17   18 2
    42   17   19 1
    43   19   23 2
    44   19   20 1
    45   20   21 2
    46   20   56 1
    47   21   22 1
    48   22   23 1
    49   22   25 1
    50   23   24 1
    51   24   57 1
    52   24   58 1
    53   25   30 ar
    54   25   26 ar
    55   26   27 ar
    56   26   59 1
    57   27   28 ar
    58   27   60 1
    59   28   29 ar
    60   28   61 1
    61   29   30 ar
    62   29   62 1
    63   30   63 1
    64   31   32 1
    65   31   33 1
    66   31   34 1
    67   35   64 1
@<TRIPOS>MOLECULE
CHEMBL394168__2
   64    67     0     0     0
SMALL
USER_CHARGES

@<TRIPOS>ATOM
      1 C1          2.8936    0.7978   -2.6497 C.3       1 <0>        -0.1623
      2 C2          2.6045   -0.5200   -1.9280 C.3       1 <0>        -0.1347
      3 C3          1.1108   -0.6097   -1.6090 C.3       1 <0>        -0.0014
      4 C4          0.8237    0.1601   -0.3214 C.3       1 <0>        -0.1548
      5 C5         -0.6960    0.2436   -0.1365 C.3       1 <0>        -0.1090
      6 C6         -1.2599    1.1809   -1.2025 C.3       1 <0>        -0.0931
      7 C7         -0.7687    0.7840   -2.5700 C.ar      1 <0>        -0.0667
      8 C8          0.3224   -0.0352   -2.7567 C.ar      1 <0>        -0.0653
      9 C9          0.7275   -0.3578   -4.0452 C.ar      1 <0>        -0.1107
     10 C10         0.0439    0.1328   -5.1387 C.ar      1 <0>        -0.1293
     11 C11        -1.0535    0.9518   -4.9513 C.ar      1 <0>        -0.1175
     12 C12        -1.4565    1.2751   -3.6719 C.ar      1 <0>        -0.1247
     13 C13         0.7236   -2.0772   -1.4154 C.3       1 <0>        -0.1402
     14 C14         1.3721   -2.6114   -0.1367 C.3       1 <0>         0.0897
     15 C15         1.7238   -4.0888   -0.3221 C.3       1 <0>         0.0949
     16 N1          2.4407   -4.5722    0.8605 N.am      1 <0>        -0.7280
     17 C16         2.9138   -5.8338    0.8929 C.2       1 <0>         0.6112
     18 O1          2.7454   -6.5713   -0.0602 O.2       1 <0>        -0.5650
     19 C17         3.6320   -6.3180    2.0776 C.2       1 <0>        -0.3716
     20 C18         3.8990   -5.5851    3.2583 C.2       1 <0>         0.1226
     21 N2          4.5567   -6.3565    4.0773 N.2       1 <0>        -0.2931
     22 N3          4.7466   -7.6074    3.4804 N.pl3     1 <0>        -0.3488
     23 C19         4.1751   -7.5885    2.2559 C.2       1 <0>         0.4454
     24 N4          4.1389   -8.6300    1.3516 N.pl3     1 <0>        -0.8256
     25 C20         5.4121   -8.6975    4.0570 C.ar      1 <0>         0.1540
     26 C21         4.9798   -9.9917    3.7998 C.ar      1 <0>        -0.1489
     27 C22         5.6380  -11.0641    4.3692 C.ar      1 <0>        -0.0919
     28 C23         6.7262  -10.8500    5.1951 C.ar      1 <0>        -0.1214
     29 C24         7.1592   -9.5623    5.4532 C.ar      1 <0>        -0.0948
     30 C25         6.5086   -8.4860    4.8822 C.ar      1 <0>        -0.1079
     31 C26         0.3950   -2.4624    1.0312 C.3       1 <0>         0.4551
     32 F1         -0.7795   -3.1684    0.7496 F         1 <0>        -0.1700
     33 F2          0.9786   -2.9735    2.1955 F         1 <0>        -0.1747
     34 F3          0.0926   -1.1091    1.2165 F         1 <0>        -0.1393
     35 O2          2.5617   -1.8695    0.1398 O.3       1 <0>        -0.5359
     36 H1          2.3211    0.8378   -3.5763 H         1 <0>         0.0676
     37 H2          2.6080    1.6327   -2.0098 H         1 <0>         0.0549
     38 H3          3.9577    0.8617   -2.8770 H         1 <0>         0.0516
     39 H4          2.8901   -1.3549   -2.5679 H         1 <0>         0.0619
     40 H5          3.1770   -0.5600   -1.0014 H         1 <0>         0.0953
     41 H6          1.2685   -0.3623    0.5256 H         1 <0>         0.1310
     42 H7          1.2405    1.1647   -0.3937 H         1 <0>         0.0588
     43 H8         -1.1347   -0.7477   -0.2500 H         1 <0>         0.0613
     44 H9         -0.9243    0.6354    0.8547 H         1 <0>         0.0713
     45 H10        -2.3487    1.1330   -1.1838 H         1 <0>         0.0709
     46 H11        -0.9420    2.2013   -0.9885 H         1 <0>         0.0738
     47 H12         1.5850   -0.9977   -4.1925 H         1 <0>         0.1204
     48 H13         0.3655   -0.1221   -6.1378 H         1 <0>         0.1199
     49 H14        -1.5935    1.3377   -5.8033 H         1 <0>         0.1198
     50 H15        -2.3139    1.9154   -3.5262 H         1 <0>         0.1188
     51 H16        -0.3603   -2.1594   -1.3348 H         1 <0>         0.0917
     52 H17         1.0697   -2.6599   -2.2691 H         1 <0>         0.0938
     53 H18         0.8089   -4.6664   -0.4536 H         1 <0>         0.0891
     54 H19         2.3560   -4.2041   -1.2025 H         1 <0>         0.0950
     55 H20         2.5749   -3.9842    1.6203 H         1 <0>         0.4079
     56 H21         3.6082   -4.5624    3.4479 H         1 <0>         0.1932
     57 H22         3.7031   -8.5121    0.4931 H         1 <0>         0.4319
     58 H23         4.5494   -9.4802    1.5744 H         1 <0>         0.4037
     59 H24         4.1295  -10.1596    3.1555 H         1 <0>         0.1292
     60 H25         5.3022  -12.0710    4.1695 H         1 <0>         0.1354
     61 H26         7.2389  -11.6902    5.6398 H         1 <0>         0.1320
     62 H27         8.0092   -9.3982    6.0989 H         1 <0>         0.1351
     63 H28         6.8500   -7.4808    5.0805 H         1 <0>         0.1369
     64 H29         3.2275   -1.9187   -0.5597 H         1 <0>         0.4018
@<TRIPOS>BOND
     1    1    2 1
     2    1   36 1
     3    1   37 1
     4    1   38 1
     5    2    3 1
     6    2   39 1
     7    2   40 1
     8    3    8 1
     9    3    4 1
    10    3   13 1
    11    4    5 1
    12    4   41 1
    13    4   42 1
    14    5    6 1
    15    5   43 1
    16    5   44 1
    17    6    7 1
    18    6   45 1
    19    6   46 1
    20    7   12 ar
    21    7    8 ar
    22    8    9 ar
    23    9   10 ar
    24    9   47 1
    25   10   11 ar
    26   10   48 1
    27   11   12 ar
    28   11   49 1
    29   12   50 1
    30   13   14 1
    31   13   51 1
    32   13   52 1
    33   14   15 1
    34   14   31 1
    35   14   35 1
    36   15   16 1
    37   15   53 1
    38   15   54 1
    39   16   17 am
    40   16   55 1
    41   17   18 2
    42   17   19 1
    43   19   23 2
    44   19   20 1
    45   20   21 2
    46   20   56 1
    47   21   22 1
    48   22   23 1
    49   22   25 1
    50   23   24 1
    51   24   57 1
    52   24   58 1
    53   25   30 ar
    54   25   26 ar
    55   26   27 ar
    56   26   59 1
    57   27   28 ar
    58   27   60 1
    59   28   29 ar
    60   28   61 1
    61   29   30 ar
    62   29   62 1
    63   30   63 1
    64   31   32 1
    65   31   33 1
    66   31   34 1
    67   35   64 1
@<TRIPOS>MOLECULE
CHEMBL394168__3
   64    67     0     0     0
SMALL
USER_CHARGES

@<TRIPOS>ATOM
      1 C1          2.0791    1.2731   -1.4503 C.3       1 <0>        -0.1468
      2 C2          2.1386   -0.1761   -1.9371 C.3       1 <0>        -0.1721
      3 C3          0.7673   -0.8307   -1.7591 C.3       1 <0>        -0.0090
      4 C4          0.0880   -0.2481   -0.5214 C.3       1 <0>        -0.1539
      5 C5         -1.3602   -0.7502   -0.4830 C.3       1 <0>        -0.1143
      6 C6         -2.1324   -0.0797   -1.6175 C.3       1 <0>        -0.0852
      7 C7         -1.3988   -0.2386   -2.9235 C.ar      1 <0>        -0.0702
      8 C8         -0.0663   -0.5797   -2.9884 C.ar      1 <0>        -0.0625
      9 C9          0.5523   -0.7037   -4.2255 C.ar      1 <0>        -0.1173
     10 C10        -0.1581   -0.4915   -5.3892 C.ar      1 <0>        -0.1245
     11 C11        -1.4966   -0.1529   -5.3241 C.ar      1 <0>        -0.1195
     12 C12        -2.1125   -0.0273   -4.0959 C.ar      1 <0>        -0.1241
     13 C13         0.9484   -2.3383   -1.5716 C.3       1 <0>        -0.1367
     14 C14         1.4179   -2.6219   -0.1433 C.3       1 <0>         0.0876
     15 C15         1.5998   -4.1294    0.0440 C.3       1 <0>         0.0955
     16 N1          2.0493   -4.4009    1.4116 N.am      1 <0>        -0.7289
     17 C16         2.2766   -5.6692    1.8070 C.2       1 <0>         0.6108
     18 O1          2.1085   -6.5888    1.0279 O.2       1 <0>        -0.5655
     19 C17         2.7269   -5.9411    3.1771 C.2       1 <0>        -0.3711
     20 C18         2.9593   -4.9835    4.1927 C.2       1 <0>         0.1225
     21 N2          3.3483   -5.6129    5.2655 N.2       1 <0>        -0.2932
     22 N3          3.3876   -6.9869    5.0054 N.pl3     1 <0>        -0.3488
     23 C19         3.0010   -7.1916    3.7266 C.2       1 <0>         0.4451
     24 N4          2.8998   -8.4092    3.0854 N.pl3     1 <0>        -0.8256
     25 C20         3.7593   -7.9831    5.9182 C.ar      1 <0>         0.1541
     26 C21         3.1384   -9.2245    5.8842 C.ar      1 <0>        -0.1490
     27 C22         3.5073  -10.2045    6.7849 C.ar      1 <0>        -0.0920
     28 C23         4.4936   -9.9501    7.7201 C.ar      1 <0>        -0.1214
     29 C24         5.1138   -8.7147    7.7565 C.ar      1 <0>        -0.0947
     30 C25         4.7533   -7.7326    6.8548 C.ar      1 <0>        -0.1079
     31 C26         2.7504   -1.9125    0.1059 C.3       1 <0>         0.4638
     32 F1          2.5339   -0.5337    0.2021 F         1 <0>        -0.1453
     33 F2          3.3121   -2.3808    1.2985 F         1 <0>        -0.1701
     34 F3          3.6237   -2.1745   -0.9552 F         1 <0>        -0.1593
     35 O2          0.4418   -2.1411    0.7832 O.3       1 <0>        -0.5214
     36 H1          1.3368    1.8212   -2.0306 H         1 <0>         0.0496
     37 H2          1.8019    1.2912   -0.3963 H         1 <0>         0.0674
     38 H3          3.0561    1.7395   -1.5771 H         1 <0>         0.0483
     39 H4          2.4158   -0.1942   -2.9911 H         1 <0>         0.0597
     40 H5          2.8809   -0.7242   -1.3568 H         1 <0>         0.0991
     41 H6          0.6142   -0.5765    0.3750 H         1 <0>         0.1345
     42 H7          0.0978    0.8405   -0.5754 H         1 <0>         0.0664
     43 H8         -1.3775   -1.8319   -0.6163 H         1 <0>         0.0562
     44 H9         -1.8137   -0.4903    0.4735 H         1 <0>         0.0694
     45 H10        -3.1182   -0.5373   -1.7010 H         1 <0>         0.0706
     46 H11        -2.2469    0.9815   -1.3964 H         1 <0>         0.0746
     47 H12         1.5982   -0.9682   -4.2772 H         1 <0>         0.1227
     48 H13         0.3301   -0.5892   -6.3475 H         1 <0>         0.1200
     49 H14        -2.0583    0.0130   -6.2315 H         1 <0>         0.1199
     50 H15        -3.1584    0.2376   -4.0458 H         1 <0>         0.1187
     51 H16        -0.0011   -2.8432   -1.7490 H         1 <0>         0.0956
     52 H17         1.6927   -2.7055   -2.2783 H         1 <0>         0.0930
     53 H18         0.6505   -4.6348   -0.1335 H         1 <0>         0.0941
     54 H19         2.3443   -4.4961   -0.6627 H         1 <0>         0.0896
     55 H20         2.1833   -3.6679    2.0326 H         1 <0>         0.4084
     56 H21         2.8359   -3.9150    4.0953 H         1 <0>         0.1929
     57 H22         2.6137   -8.4474    2.1594 H         1 <0>         0.4319
     58 H23         3.1149   -9.2270    3.5607 H         1 <0>         0.4036
     59 H24         2.3675   -9.4236    5.1545 H         1 <0>         0.1292
     60 H25         3.0247  -11.1703    6.7590 H         1 <0>         0.1353
     61 H26         4.7798  -10.7177    8.4238 H         1 <0>         0.1320
     62 H27         5.8836   -8.5189    8.4883 H         1 <0>         0.1352
     63 H28         5.2412   -6.7694    6.8807 H         1 <0>         0.1369
     64 H29        -0.4295   -2.5483    0.6831 H         1 <0>         0.3958
@<TRIPOS>BOND
     1    1    2 1
     2    1   36 1
     3    1   37 1
     4    1   38 1
     5    2    3 1
     6    2   39 1
     7    2   40 1
     8    3    8 1
     9    3    4 1
    10    3   13 1
    11    4    5 1
    12    4   41 1
    13    4   42 1
    14    5    6 1
    15    5   43 1
    16    5   44 1
    17    6    7 1
    18    6   45 1
    19    6   46 1
    20    7   12 ar
    21    7    8 ar
    22    8    9 ar
    23    9   10 ar
    24    9   47 1
    25   10   11 ar
    26   10   48 1
    27   11   12 ar
    28   11   49 1
    29   12   50 1
    30   13   14 1
    31   13   51 1
    32   13   52 1
    33   14   15 1
    34   14   31 1
    35   14   35 1
    36   15   16 1
    37   15   53 1
    38   15   54 1
    39   16   17 am
    40   16   55 1
    41   17   18 2
    42   17   19 1
    43   19   23 2
    44   19   20 1
    45   20   21 2
    46   20   56 1
    47   21   22 1
    48   22   23 1
    49   22   25 1
    50   23   24 1
    51   24   57 1
    52   24   58 1
    53   25   30 ar
    54   25   26 ar
    55   26   27 ar
    56   26   59 1
    57   27   28 ar
    58   27   60 1
    59   28   29 ar
    60   28   61 1
    61   29   30 ar
    62   29   62 1
    63   30   63 1
    64   31   32 1
    65   31   33 1
    66   31   34 1
    67   35   64 1
@<TRIPOS>MOLECULE
CHEMBL65929
   50    54     0     0     0
SMALL
USER_CHARGES

@<TRIPOS>ATOM
      1 C1         -0.1808    2.0490    0.2015 C.3       1 <0>        -0.1315
      2 C2         -0.2837    0.5659   -0.0596 C.2       1 <0>        -0.0538
      3 C3         -0.5176    0.1904   -1.3165 C.2       1 <0>        -0.1606
      4 C4         -0.7297   -1.2405   -1.7144 C.3       1 <0>         0.2151
      5 N1         -0.2067   -2.1503   -0.6971 N.pl3     1 <0>        -0.7322
      6 C5         -0.2018   -1.7944    0.6464 C.ar      1 <0>         0.2275
      7 C6         -0.1309   -0.4279    1.0089 C.ar      1 <0>        -0.0334
      8 C7          0.1430   -0.1332    2.3387 C.ar      1 <0>        -0.0356
      9 C8         -0.1521   -1.1159    3.3342 C.ar      1 <0>        -0.0897
     10 C9         -0.3194   -2.4345    2.9646 C.ar      1 <0>        -0.0536
     11 C10        -0.2854   -2.7736    1.6223 C.ar      1 <0>        -0.1733
     12 C11        -0.2711   -0.6481    4.7328 C.ar      1 <0>        -0.0626
     13 C12        -0.5592   -1.5412    5.7602 C.ar      1 <0>        -0.1171
     14 C13        -0.6712   -1.0838    7.0614 C.ar      1 <0>         0.0843
     15 C14        -0.5008    0.2613    7.3435 C.ar      1 <0>        -0.1216
     16 C15        -0.2116    1.1561    6.3290 C.ar      1 <0>        -0.0981
     17 C16        -0.0889    0.7108    5.0241 C.ar      1 <0>         0.1015
     18 O1          0.2197    1.5932    4.0319 O.3       1 <0>        -0.2282
     19 C17         0.7816    1.0594    2.8964 C.2       1 <0>         0.1962
     20 C18         1.9264    1.5788    2.3916 C.2       1 <0>        -0.1759
     21 S1          2.8265    0.7491    1.1111 S.3       1 <0>        -0.0748
     22 C19         3.1074    2.0700   -0.1042 C.3       1 <0>        -0.1248
     23 C20         3.8412    3.2321    0.5578 C.3       1 <0>        -0.1268
     24 C21         2.9028    4.0348    1.4536 C.3       1 <0>        -0.1132
     25 S2          2.5767    3.1174    2.9815 S.3       1 <0>        -0.1018
     26 F1         -0.9453   -1.9522    8.0597 F         1 <0>        -0.1350
     27 C22        -2.2300   -1.4960   -1.9008 C.3       1 <0>        -0.1607
     28 C23        -0.0155   -1.5053   -3.0450 C.3       1 <0>        -0.1546
     29 H1          0.7682    2.2667    0.6915 H         1 <0>         0.0689
     30 H2         -0.2339    2.5888   -0.7439 H         1 <0>         0.0677
     31 H3         -1.0025    2.3624    0.8454 H         1 <0>         0.0719
     32 H4         -0.5523    0.9592   -2.0819 H         1 <0>         0.1262
     33 H5          0.1463   -3.0239   -0.9645 H         1 <0>         0.4058
     34 H6         -0.4755   -3.1990    3.7106 H         1 <0>         0.1348
     35 H7         -0.3243   -3.8136    1.3307 H         1 <0>         0.1318
     36 H8         -0.6960   -2.5904    5.5446 H         1 <0>         0.1442
     37 H9         -0.5944    0.6134    8.3597 H         1 <0>         0.1482
     38 H10        -0.0825    2.2044    6.5557 H         1 <0>         0.1491
     39 H11         3.7084    1.6835   -0.9273 H         1 <0>         0.1169
     40 H12         2.1489    2.4185   -0.4888 H         1 <0>         0.0938
     41 H13         4.6619    2.8408    1.1591 H         1 <0>         0.0917
     42 H14         4.2452    3.8865   -0.2145 H         1 <0>         0.0887
     43 H15         3.3640    4.9922    1.6961 H         1 <0>         0.1203
     44 H16         1.9626    4.2084    0.9303 H         1 <0>         0.0874
     45 H17        -2.6164   -0.8389   -2.6800 H         1 <0>         0.0668
     46 H18        -2.3885   -2.5349   -2.1900 H         1 <0>         0.0620
     47 H19        -2.7517   -1.2957   -0.9649 H         1 <0>         0.0571
     48 H20         1.0510   -1.3121   -2.9297 H         1 <0>         0.0637
     49 H21        -0.1669   -2.5442   -3.3382 H         1 <0>         0.0639
     50 H22        -0.4229   -0.8480   -3.8132 H         1 <0>         0.0734
@<TRIPOS>BOND
     1    1    2 1
     2    1   29 1
     3    1   30 1
     4    1   31 1
     5    2    7 1
     6    2    3 2
     7    3    4 1
     8    3   32 1
     9    4    5 1
    10    4   27 1
    11    4   28 1
    12    5    6 1
    13    5   33 1
    14    6   11 ar
    15    6    7 ar
    16    7    8 ar
    17    8   19 1
    18    8    9 ar
    19    9   10 ar
    20    9   12 1
    21   10   11 ar
    22   10   34 1
    23   11   35 1
    24   12   17 ar
    25   12   13 ar
    26   13   14 ar
    27   13   36 1
    28   14   15 ar
    29   14   26 1
    30   15   16 ar
    31   15   37 1
    32   16   17 ar
    33   16   38 1
    34   17   18 1
    35   18   19 1
    36   19   20 2
    37   20   25 1
    38   20   21 1
    39   21   22 1
    40   22   23 1
    41   22   39 1
    42   22   40 1
    43   23   24 1
    44   23   41 1
    45   23   42 1
    46   24   25 1
    47   24   43 1
    48   24   44 1
    49   27   45 1
    50   27   46 1
    51   27   47 1
    52   28   48 1
    53   28   49 1
    54   28   50 1
@<TRIPOS>MOLECULE
CHEMBL66582
   56    60     0     0     0
SMALL
USER_CHARGES

@<TRIPOS>ATOM
      1 C1         -3.3769    1.3405   -0.7307 C.3       1 <0>         0.0221
      2 O1         -2.9291   -0.0138   -0.6442 O.3       1 <0>        -0.2996
      3 C2         -3.8855   -0.9768   -0.5817 C.ar      1 <0>         0.1446
      4 C3         -5.2288   -0.6296   -0.6086 C.ar      1 <0>        -0.2271
      5 C4         -6.1999   -1.6113   -0.5428 C.ar      1 <0>        -0.0754
      6 C5         -5.8465   -2.9446   -0.4377 C.ar      1 <0>        -0.1728
      7 C6         -4.5113   -3.3080   -0.4029 C.ar      1 <0>         0.1457
      8 C7         -3.5242   -2.3179   -0.4959 C.ar      1 <0>        -0.0926
      9 C8         -2.1053   -2.7429   -0.4856 C.ar      1 <0>        -0.1521
     10 C9         -1.0727   -1.8326   -0.2959 C.ar      1 <0>        -0.0342
     11 C10         0.2340   -2.2772   -0.2747 C.ar      1 <0>        -0.2578
     12 C11         0.5123   -3.6291   -0.4402 C.ar      1 <0>         0.2953
     13 C12        -0.5207   -4.5391   -0.6378 C.ar      1 <0>        -0.1590
     14 C13        -1.8248   -4.0992   -0.6703 C.ar      1 <0>        -0.0770
     15 C14        -2.9592   -5.0549   -0.9323 C.3       1 <0>         0.1870
     16 O2         -4.1477   -4.6080   -0.2681 O.3       1 <0>        -0.3062
     17 C15        -2.5896   -6.4208   -0.4140 C.ar      1 <0>        -0.0292
     18 C16        -2.8085   -6.7383    0.9141 C.ar      1 <0>        -0.1174
     19 C17        -2.4710   -7.9906    1.3928 C.ar      1 <0>        -0.0846
     20 C18        -1.9136   -8.9283    0.5450 C.ar      1 <0>        -0.1439
     21 C19        -1.6930   -8.6124   -0.7878 C.ar      1 <0>         0.1205
     22 C20        -2.0379   -7.3565   -1.2670 C.ar      1 <0>        -0.1749
     23 O3         -1.1448   -9.5329   -1.6237 O.3       1 <0>        -0.2616
     24 C21        -0.9384   -9.1760   -2.9185 C.ar      1 <0>         0.0836
     25 C22         0.2646   -8.5971   -3.2965 C.ar      1 <0>        -0.1190
     26 C23         0.4718   -8.2351   -4.6134 C.ar      1 <0>        -0.1029
     27 C24        -0.5185   -8.4488   -5.5544 C.ar      1 <0>        -0.1192
     28 C25        -1.7184   -9.0250   -5.1803 C.ar      1 <0>        -0.1106
     29 C26        -1.9282   -9.3949   -3.8659 C.ar      1 <0>        -0.1283
     30 N1          1.8354   -4.0755   -0.4085 N.2       1 <0>        -1.0929
     31 S1          3.0683   -2.9951   -0.1741 S.o2      1 <0>         2.5244
     32 O4          3.0236   -2.1419   -1.3096 O.2       1 <0>        -1.0289
     33 O5          2.8523   -2.4760    1.1310 O.2       1 <0>        -1.0282
     34 C27         4.5794   -3.9982   -0.2054 C.3       1 <0>        -0.6375
     35 H1         -2.5148    2.0061   -0.7742 H         1 <0>         0.0971
     36 H2         -3.9794    1.4672   -1.6302 H         1 <0>         0.0523
     37 H3         -3.9779    1.5812    0.1461 H         1 <0>         0.0526
     38 H4         -5.5160    0.4089   -0.6814 H         1 <0>         0.1250
     39 H5         -7.2435   -1.3349   -0.5733 H         1 <0>         0.1247
     40 H6         -6.6134   -3.7030   -0.3823 H         1 <0>         0.1272
     41 H7         -1.2912   -0.7829   -0.1661 H         1 <0>         0.1288
     42 H8          1.0408   -1.5742   -0.1290 H         1 <0>         0.1044
     43 H9         -0.3002   -5.5886   -0.7654 H         1 <0>         0.1172
     44 H10        -3.1378   -5.1164   -2.0058 H         1 <0>         0.0815
     45 H11        -3.2435   -6.0064    1.5787 H         1 <0>         0.1293
     46 H12        -2.6430   -8.2360    2.4304 H         1 <0>         0.1304
     47 H13        -1.6495   -9.9062    0.9196 H         1 <0>         0.1294
     48 H14        -1.8710   -7.1095   -2.3051 H         1 <0>         0.1292
     49 H15         1.0382   -8.4293   -2.5618 H         1 <0>         0.1349
     50 H16         1.4080   -7.7845   -4.9082 H         1 <0>         0.1312
     51 H17        -0.3547   -8.1647   -6.5835 H         1 <0>         0.1260
     52 H18        -2.4905   -9.1905   -5.9171 H         1 <0>         0.1276
     53 H19        -2.8638   -9.8494   -3.5751 H         1 <0>         0.1289
     54 H20         4.6617   -4.5011   -1.1689 H         1 <0>         0.1149
     55 H21         5.4461   -3.3542   -0.0564 H         1 <0>         0.1014
     56 H22         4.5383   -4.7420    0.5904 H         1 <0>         0.1154
@<TRIPOS>BOND
     1    1    2 1
     2    1   35 1
     3    1   36 1
     4    1   37 1
     5    2    3 1
     6    3    8 ar
     7    3    4 ar
     8    4    5 ar
     9    4   38 1
    10    5    6 ar
    11    5   39 1
    12    6    7 ar
    13    6   40 1
    14    7   16 1
    15    7    8 ar
    16    8    9 1
    17    9   14 ar
    18    9   10 ar
    19   10   11 ar
    20   10   41 1
    21   11   12 ar
    22   11   42 1
    23   12   13 ar
    24   12   30 1
    25   13   14 ar
    26   13   43 1
    27   14   15 1
    28   15   16 1
    29   15   17 1
    30   15   44 1
    31   17   22 ar
    32   17   18 ar
    33   18   19 ar
    34   18   45 1
    35   19   20 ar
    36   19   46 1
    37   20   21 ar
    38   20   47 1
    39   21   22 ar
    40   21   23 1
    41   22   48 1
    42   23   24 1
    43   24   29 ar
    44   24   25 ar
    45   25   26 ar
    46   25   49 1
    47   26   27 ar
    48   26   50 1
    49   27   28 ar
    50   27   51 1
    51   28   29 ar
    52   28   52 1
    53   29   53 1
    54   30   31 1
    55   31   32 2
    56   31   33 2
    57   31   34 1
    58   34   54 1
    59   34   55 1
    60   34   56 1
@<TRIPOS>MOLECULE
CHEMBL66582__1
   56    60     0     0     0
SMALL
USER_CHARGES

@<TRIPOS>ATOM
      1 C1          0.0492    1.4250   -0.0129 C.3       1 <0>         0.0218
      2 O1          0.0989   -0.0030   -0.0329 O.3       1 <0>        -0.2989
      3 C2         -1.0875   -0.6624    0.0284 C.ar      1 <0>         0.1446
      4 C3         -2.2778    0.0473    0.1005 C.ar      1 <0>        -0.2274
      5 C4         -3.4834   -0.6261    0.1657 C.ar      1 <0>        -0.0746
      6 C5         -3.5175   -2.0089    0.1711 C.ar      1 <0>        -0.1765
      7 C6         -2.3393   -2.7324    0.1044 C.ar      1 <0>         0.1447
      8 C7         -1.1169   -2.0536    0.0135 C.ar      1 <0>        -0.0932
      9 C8          0.1231   -2.8576   -0.0842 C.ar      1 <0>        -0.1503
     10 C9          1.3776   -2.2885    0.0984 C.ar      1 <0>        -0.0333
     11 C10         2.5051   -3.0808    0.0170 C.ar      1 <0>        -0.2564
     12 C11         2.3832   -4.4406   -0.2450 C.ar      1 <0>         0.2966
     13 C12         1.1281   -5.0087   -0.4354 C.ar      1 <0>        -0.1626
     14 C13         0.0013   -4.2210   -0.3648 C.ar      1 <0>        -0.0741
     15 C14        -1.3664   -4.7998   -0.6161 C.3       1 <0>         0.1854
     16 O2         -2.3530   -4.0885    0.1399 O.3       1 <0>        -0.3010
     17 C15        -1.6857   -4.7037   -2.0857 C.ar      1 <0>        -0.0814
     18 C16        -2.1236   -3.5060   -2.6207 C.ar      1 <0>        -0.1037
     19 C17        -2.4169   -3.4143   -3.9686 C.ar      1 <0>        -0.1025
     20 C18        -2.2735   -4.5198   -4.7847 C.ar      1 <0>        -0.1215
     21 C19        -1.8344   -5.7226   -4.2506 C.ar      1 <0>         0.0821
     22 C20        -1.5352   -5.8104   -2.8983 C.ar      1 <0>        -0.1183
     23 O3         -1.6926   -6.8114   -5.0511 O.3       1 <0>        -0.2546
     24 C21        -2.5336   -7.8607   -4.8558 C.ar      1 <0>         0.1249
     25 C22        -3.5836   -7.7515   -3.9554 C.ar      1 <0>        -0.1930
     26 C23        -4.4371   -8.8197   -3.7586 C.ar      1 <0>        -0.0820
     27 C24        -4.2455   -9.9971   -4.4577 C.ar      1 <0>        -0.1572
     28 C25        -3.1996  -10.1088   -5.3553 C.ar      1 <0>        -0.0850
     29 C26        -2.3472   -9.0413   -5.5606 C.ar      1 <0>        -0.1479
     30 N1          3.5263   -5.2398   -0.3180 N.2       1 <0>        -1.0943
     31 S1          5.0226   -4.5670   -0.0925 S.o2      1 <0>         2.5259
     32 O4          5.1758   -3.6539   -1.1704 O.2       1 <0>        -1.0280
     33 O5          5.0141   -4.1062    1.2517 O.2       1 <0>        -1.0282
     34 C27         6.1861   -5.9471   -0.2725 C.3       1 <0>        -0.6375
     35 H1          1.0619    1.8245   -0.0672 H         1 <0>         0.0975
     36 H2         -0.5278    1.7804   -0.8666 H         1 <0>         0.0526
     37 H3         -0.4242    1.7592    0.9102 H         1 <0>         0.0529
     38 H4         -2.2623    1.1271    0.1061 H         1 <0>         0.1257
     39 H5         -4.4066   -0.0676    0.2132 H         1 <0>         0.1253
     40 H6         -4.4647   -2.5248    0.2270 H         1 <0>         0.1278
     41 H7          1.4701   -1.2320    0.3025 H         1 <0>         0.1290
     42 H8          3.4828   -2.6438    0.1566 H         1 <0>         0.1050
     43 H9          1.0377   -6.0657   -0.6381 H         1 <0>         0.1155
     44 H10        -1.3748   -5.8478   -0.3164 H         1 <0>         0.1279
     45 H11        -2.2370   -2.6408   -1.9843 H         1 <0>         0.1344
     46 H12        -2.7588   -2.4778   -4.3838 H         1 <0>         0.1300
     47 H13        -2.5035   -4.4479   -5.8375 H         1 <0>         0.1297
     48 H14        -1.1891   -6.7444   -2.4808 H         1 <0>         0.1329
     49 H15        -3.7333   -6.8322   -3.4086 H         1 <0>         0.1313
     50 H16        -5.2546   -8.7352   -3.0579 H         1 <0>         0.1249
     51 H17        -4.9137  -10.8312   -4.3022 H         1 <0>         0.1225
     52 H18        -3.0519  -11.0297   -5.8998 H         1 <0>         0.1286
     53 H19        -1.5333   -9.1273   -6.2653 H         1 <0>         0.1313
     54 H20         6.0846   -6.3804   -1.2675 H         1 <0>         0.1155
     55 H21         7.2047   -5.5836   -0.1366 H         1 <0>         0.1017
     56 H22         5.9681   -6.7064    0.4785 H         1 <0>         0.1155
@<TRIPOS>BOND
     1    1    2 1
     2    1   35 1
     3    1   36 1
     4    1   37 1
     5    2    3 1
     6    3    8 ar
     7    3    4 ar
     8    4    5 ar
     9    4   38 1
    10    5    6 ar
    11    5   39 1
    12    6    7 ar
    13    6   40 1
    14    7   16 1
    15    7    8 ar
    16    8    9 1
    17    9   14 ar
    18    9   10 ar
    19   10   11 ar
    20   10   41 1
    21   11   12 ar
    22   11   42 1
    23   12   13 ar
    24   12   30 1
    25   13   14 ar
    26   13   43 1
    27   14   15 1
    28   15   16 1
    29   15   17 1
    30   15   44 1
    31   17   22 ar
    32   17   18 ar
    33   18   19 ar
    34   18   45 1
    35   19   20 ar
    36   19   46 1
    37   20   21 ar
    38   20   47 1
    39   21   22 ar
    40   21   23 1
    41   22   48 1
    42   23   24 1
    43   24   29 ar
    44   24   25 ar
    45   25   26 ar
    46   25   49 1
    47   26   27 ar
    48   26   50 1
    49   27   28 ar
    50   27   51 1
    51   28   29 ar
    52   28   52 1
    53   29   53 1
    54   30   31 1
    55   31   32 2
    56   31   33 2
    57   31   34 1
    58   34   54 1
    59   34   55 1
    60   34   56 1
@<TRIPOS>MOLECULE
CHEMBL566823
   57    61     0     0     0
SMALL
USER_CHARGES

@<TRIPOS>ATOM
      1 C1          1.1554    2.0458   -0.7446 C.3       1 <0>        -0.1860
      2 C2          0.6418    0.7180   -0.1841 C.3       1 <0>        -0.0360
      3 C3         -0.8546    0.8781    0.1259 C.3       1 <0>         0.0194
      4 N1         -1.2809    0.6861    1.5181 N.pl3     1 <0>        -0.3983
      5 C4         -2.4850    0.7869    2.1198 C.cat     1 <0>         0.2841
      6 N2         -2.3571    0.5322    3.3926 N.pl3     1 <0>        -0.4632
      7 C5         -1.0702    0.2521    3.6696 C.2       1 <0>         0.0872
      8 C6         -0.3625    0.3401    2.4794 C.2       1 <0>         0.1090
      9 C7          1.0518    0.1281    2.1683 C.2       1 <0>        -0.1376
     10 C8          1.5486    0.3068    0.9559 C.2       1 <0>        -0.0235
     11 C9          3.0082    0.0560    0.6656 C.3       1 <0>        -0.0895
     12 C10         3.1034   -0.9495   -0.4885 C.3       1 <0>        -0.1202
     13 C11         2.2744   -0.4470   -1.6715 C.3       1 <0>        -0.1178
     14 C12         0.8008   -0.3434   -1.2732 C.3       1 <0>        -0.0902
     15 H1          0.4580   -1.3065   -0.8949 H         1 <0>         0.0903
     16 C13        -0.0315    0.0506   -2.4950 C.3       1 <0>         0.1732
     17 C14        -0.0255   -1.0964   -3.5076 C.3       1 <0>        -0.1495
     18 C15        -1.4481    0.3356   -2.0671 C.ar      1 <0>        -0.0549
     19 C16        -2.2634   -0.6796   -1.5905 C.ar      1 <0>        -0.1878
     20 C17        -3.5571   -0.3805   -1.2074 C.ar      1 <0>         0.1038
     21 N3         -4.0176    0.8523   -1.2916 N.ar      1 <0>        -0.4782
     22 C18        -3.2709    1.8424   -1.7400 C.ar      1 <0>         0.1206
     23 C19        -1.9654    1.6202   -2.1354 C.ar      1 <0>        -0.1999
     24 O1          0.5288    1.2197   -3.0961 O.3       1 <0>        -0.5371
     25 C20        -0.5125   -0.0869    4.9991 C.ar      1 <0>        -0.0748
     26 C21         0.6722    0.5079    5.4333 C.ar      1 <0>        -0.0511
     27 C22         1.1876    0.1888    6.6724 C.ar      1 <0>        -0.1473
     28 C23         0.5308   -0.7212    7.4851 C.ar      1 <0>         0.1370
     29 C24        -0.6461   -1.3151    7.0582 C.ar      1 <0>        -0.1471
     30 C25        -1.1732   -0.9977    5.8236 C.ar      1 <0>        -0.0637
     31 F1          1.0398   -1.0308    8.6977 F         1 <0>        -0.1228
     32 H2          1.6416    1.8712   -1.7044 H         1 <0>         0.1177
     33 H3          0.3186    2.7308   -0.8805 H         1 <0>         0.0614
     34 H4          1.8720    2.4812   -0.0482 H         1 <0>         0.0736
     35 H5         -1.1540    1.8805   -0.1802 H         1 <0>         0.1163
     36 H6         -1.4020    0.1667   -0.4924 H         1 <0>         0.1706
     37 H7         -3.4107    1.0396    1.6243 H         1 <0>         0.2552
     38 H8          1.7196   -0.1659    2.9645 H         1 <0>         0.1537
     39 H9          3.4917    0.9902    0.3800 H         1 <0>         0.0950
     40 H10         3.4938   -0.3539    1.5512 H         1 <0>         0.0887
     41 H11         4.1445   -1.0553   -0.7933 H         1 <0>         0.0844
     42 H12         2.7205   -1.9160   -0.1610 H         1 <0>         0.0691
     43 H13         2.6366    0.5350   -1.9757 H         1 <0>         0.0875
     44 H14         2.3756   -1.1419   -2.5051 H         1 <0>         0.0828
     45 H15        -0.3515   -2.0144   -3.0186 H         1 <0>         0.0757
     46 H16        -0.7040   -0.8607   -4.3275 H         1 <0>         0.0728
     47 H17         0.9832   -1.2311   -3.8980 H         1 <0>         0.0844
     48 H18        -1.8922   -1.6914   -1.5198 H         1 <0>         0.1504
     49 H19        -4.1985   -1.1656   -0.8351 H         1 <0>         0.1692
     50 H20        -3.6829    2.8392   -1.7949 H         1 <0>         0.1712
     51 H21        -1.3571    2.4360   -2.4971 H         1 <0>         0.1483
     52 H22         0.1289    2.0470   -2.7950 H         1 <0>         0.3764
     53 H23         1.1853    1.2168    4.8002 H         1 <0>         0.1425
     54 H24         2.1048    0.6488    7.0095 H         1 <0>         0.1520
     55 H25        -1.1539   -2.0243    7.6950 H         1 <0>         0.1509
     56 H26        -2.0931   -1.4575    5.4937 H         1 <0>         0.1373
     57 H27        -3.0789    0.5433    4.0405 H         1 <0>         0.4647
@<TRIPOS>BOND
     1    1    2 1
     2    1   32 1
     3    1   33 1
     4    1   34 1
     5    2   10 1
     6    2   14 1
     7    2    3 1
     8    3    4 1
     9    3   35 1
    10    3   36 1
    11    4    8 1
    12    4    5 1
    13    5    6 2
    14    5   37 1
    15    6    7 1
    16    6   57 1
    17    7    8 2
    18    7   25 1
    19    8    9 1
    20    9   10 2
    21    9   38 1
    22   10   11 1
    23   11   12 1
    24   11   39 1
    25   11   40 1
    26   12   13 1
    27   12   41 1
    28   12   42 1
    29   13   14 1
    30   13   43 1
    31   13   44 1
    32   14   15 1
    33   14   16 1
    34   16   17 1
    35   16   18 1
    36   16   24 1
    37   17   45 1
    38   17   46 1
    39   17   47 1
    40   18   23 ar
    41   18   19 ar
    42   19   20 ar
    43   19   48 1
    44   20   21 ar
    45   20   49 1
    46   21   22 ar
    47   22   23 ar
    48   22   50 1
    49   23   51 1
    50   24   52 1
    51   25   30 ar
    52   25   26 ar
    53   26   27 ar
    54   26   53 1
    55   27   28 ar
    56   27   54 1
    57   28   29 ar
    58   28   31 1
    59   29   30 ar
    60   29   55 1
    61   30   56 1
@<TRIPOS>MOLECULE
CHEMBL566823__1
   56    60     0     0     0
SMALL
USER_CHARGES

@<TRIPOS>ATOM
      1 C1          1.1554    2.0458   -0.7446 C.3       1 <0>        -0.1795
      2 C2          0.6418    0.7180   -0.1841 C.3       1 <0>        -0.0217
      3 C3         -0.8546    0.8781    0.1259 C.3       1 <0>         0.0364
      4 N1         -1.2809    0.6861    1.5181 N.pl3     1 <0>        -0.4425
      5 C4         -2.4850    0.7869    2.1198 C.2       1 <0>         0.1997
      6 N2         -2.3571    0.5322    3.3926 N.2       1 <0>        -0.4711
      7 C5         -1.0702    0.2521    3.6696 C.2       1 <0>         0.0557
      8 C6         -0.3625    0.3401    2.4794 C.2       1 <0>         0.0180
      9 C7          1.0518    0.1281    2.1683 C.2       1 <0>        -0.0877
     10 C8          1.5486    0.3068    0.9559 C.2       1 <0>        -0.0969
     11 C9          3.0082    0.0560    0.6656 C.3       1 <0>        -0.0773
     12 C10         3.1034   -0.9495   -0.4885 C.3       1 <0>        -0.1177
     13 C11         2.2744   -0.4470   -1.6715 C.3       1 <0>        -0.1124
     14 C12         0.8008   -0.3434   -1.2732 C.3       1 <0>        -0.0881
     15 H1          0.4580   -1.3065   -0.8949 H         1 <0>         0.0842
     16 C13        -0.0315    0.0506   -2.4950 C.3       1 <0>         0.1739
     17 C14        -0.0255   -1.0964   -3.5076 C.3       1 <0>        -0.1458
     18 C15        -1.4481    0.3356   -2.0671 C.ar      1 <0>        -0.0449
     19 C16        -2.2634   -0.6796   -1.5905 C.ar      1 <0>        -0.1818
     20 C17        -3.5571   -0.3805   -1.2074 C.ar      1 <0>         0.1088
     21 N3         -4.0176    0.8523   -1.2916 N.ar      1 <0>        -0.4781
     22 C18        -3.2709    1.8424   -1.7400 C.ar      1 <0>         0.1191
     23 C19        -1.9654    1.6202   -2.1354 C.ar      1 <0>        -0.2000
     24 O1          0.5288    1.2197   -3.0961 O.3       1 <0>        -0.5431
     25 C20        -0.5125   -0.0869    4.9991 C.ar      1 <0>        -0.0066
     26 C21         0.5347   -1.0022    5.1059 C.ar      1 <0>        -0.0830
     27 C22         1.0506   -1.3146    6.3465 C.ar      1 <0>        -0.1510
     28 C23         0.5302   -0.7212    7.4854 C.ar      1 <0>         0.0965
     29 C24        -0.5103    0.1883    7.3846 C.ar      1 <0>        -0.1512
     30 C25        -1.0288    0.5125    6.1480 C.ar      1 <0>        -0.0654
     31 F1          1.0386   -1.0308    8.6982 F         1 <0>        -0.1397
     32 H2          1.6416    1.8712   -1.7044 H         1 <0>         0.1062
     33 H3          0.3186    2.7308   -0.8805 H         1 <0>         0.0538
     34 H4          1.8720    2.4812   -0.0482 H         1 <0>         0.0649
     35 H5         -1.1540    1.8805   -0.1802 H         1 <0>         0.0867
     36 H6         -1.4020    0.1667   -0.4924 H         1 <0>         0.1446
     37 H7         -3.4107    1.0396    1.6243 H         1 <0>         0.2029
     38 H8          1.7196   -0.1659    2.9645 H         1 <0>         0.1319
     39 H9          3.4917    0.9902    0.3800 H         1 <0>         0.0799
     40 H10         3.4938   -0.3539    1.5512 H         1 <0>         0.0768
     41 H11         4.1445   -1.0553   -0.7933 H         1 <0>         0.0727
     42 H12         2.7205   -1.9160   -0.1610 H         1 <0>         0.0645
     43 H13         2.6366    0.5350   -1.9757 H         1 <0>         0.0818
     44 H14         2.3756   -1.1419   -2.5051 H         1 <0>         0.0722
     45 H15        -0.3515   -2.0144   -3.0186 H         1 <0>         0.0736
     46 H16        -0.7040   -0.8607   -4.3275 H         1 <0>         0.0680
     47 H17         0.9832   -1.2311   -3.8980 H         1 <0>         0.0792
     48 H18        -1.8922   -1.6914   -1.5198 H         1 <0>         0.1439
     49 H19        -4.1985   -1.1656   -0.8351 H         1 <0>         0.1638
     50 H20        -3.6829    2.8392   -1.7949 H         1 <0>         0.1639
     51 H21        -1.3571    2.4360   -2.4971 H         1 <0>         0.1410
     52 H22         0.1289    2.0470   -2.7950 H         1 <0>         0.3764
     53 H23         0.9405   -1.4658    4.2189 H         1 <0>         0.1329
     54 H24         1.8614   -2.0232    6.4303 H         1 <0>         0.1375
     55 H25        -0.9131    0.6477    8.2752 H         1 <0>         0.1377
     56 H26        -1.8366    1.2251    6.0700 H         1 <0>         0.1369
@<TRIPOS>BOND
     1    1    2 1
     2    1   32 1
     3    1   33 1
     4    1   34 1
     5    2   10 1
     6    2   14 1
     7    2    3 1
     8    3    4 1
     9    3   35 1
    10    3   36 1
    11    4    8 1
    12    4    5 1
    13    5    6 2
    14    5   37 1
    15    6    7 1
    16    7    8 2
    17    7   25 1
    18    8    9 1
    19    9   10 2
    20    9   38 1
    21   10   11 1
    22   11   12 1
    23   11   39 1
    24   11   40 1
    25   12   13 1
    26   12   41 1
    27   12   42 1
    28   13   14 1
    29   13   43 1
    30   13   44 1
    31   14   15 1
    32   14   16 1
    33   16   17 1
    34   16   18 1
    35   16   24 1
    36   17   45 1
    37   17   46 1
    38   17   47 1
    39   18   23 ar
    40   18   19 ar
    41   19   20 ar
    42   19   48 1
    43   20   21 ar
    44   20   49 1
    45   21   22 ar
    46   22   23 ar
    47   22   50 1
    48   23   51 1
    49   24   52 1
    50   25   30 ar
    51   25   26 ar
    52   26   27 ar
    53   26   53 1
    54   27   28 ar
    55   27   54 1
    56   28   29 ar
    57   28   31 1
    58   29   30 ar
    59   29   55 1
    60   30   56 1
@<TRIPOS>MOLECULE
CHEMBL247601
   61    65     0     0     0
SMALL
USER_CHARGES

@<TRIPOS>ATOM
      1 C1          0.0378    1.0076   -1.6097 C.ar      1 <0>        -0.1221
      2 C2          1.1034    1.8642   -1.4057 C.ar      1 <0>        -0.1164
      3 C3          2.3802    1.3558   -1.2567 C.ar      1 <0>        -0.1163
      4 C4          2.5913   -0.0093   -1.3112 C.ar      1 <0>        -0.0798
      5 C5          1.5255   -0.8659   -1.5143 C.ar      1 <0>        -0.1172
      6 C6          0.2490   -0.3574   -1.6647 C.ar      1 <0>        -0.1195
      7 C7          3.9833   -0.5635   -1.1497 C.3       1 <0>        -0.0746
      8 C8          4.3659   -0.5578    0.3317 C.3       1 <0>        -0.0342
      9 C9          3.3519   -1.3994    1.0861 C.3       1 <0>        -0.1019
     10 C10         2.0712   -0.6188    1.3776 C.3       1 <0>        -0.1896
     11 C11         2.4618    0.6111    2.1739 C.2       1 <0>         0.3907
     12 O1          1.8943    0.9134    3.2028 O.2       1 <0>        -0.4582
     13 C12         3.5631    1.4154    1.6333 C.2       1 <0>        -0.2251
     14 C13         4.4406    0.8672    0.7902 C.2       1 <0>        -0.0246
     15 C14         5.5424    1.7542    0.2380 C.3       1 <0>        -0.1116
     16 C15         6.8859    1.0402    0.4200 C.3       1 <0>         0.1203
     17 N1          6.7620   -0.3265   -0.1054 N.pl3     1 <0>        -0.9974
     18 C16         5.7458   -1.2151    0.4705 C.3       1 <0>         0.1276
     19 S1          7.7502   -0.8541   -1.3250 S.o2      1 <0>         2.6908
     20 O2          7.0652   -1.9183   -1.9711 O.2       1 <0>        -0.9489
     21 O3          8.1888    0.3040   -2.0219 O.2       1 <0>        -0.9515
     22 C17         9.1780   -1.5589   -0.5705 C.ar      1 <0>        -0.7134
     23 C18        10.2757   -0.7647   -0.2942 C.ar      1 <0>         0.0194
     24 C19        11.3962   -1.3146    0.2976 C.ar      1 <0>        -0.2144
     25 C20        11.4195   -2.6652    0.6148 C.ar      1 <0>         0.1807
     26 C21        10.3167   -3.4599    0.3365 C.ar      1 <0>        -0.1647
     27 C22         9.1967   -2.9039   -0.2506 C.ar      1 <0>         0.0176
     28 O4         12.5207   -3.2087    1.1967 O.3       1 <0>        -0.2507
     29 C23        13.5343   -2.3745    1.5475 C.ar      1 <0>         0.0724
     30 C24        13.4021   -1.5470    2.6535 C.ar      1 <0>        -0.1320
     31 C25        14.4340   -0.6998    3.0080 C.ar      1 <0>        -0.1040
     32 C26        15.5977   -0.6756    2.2616 C.ar      1 <0>        -0.1135
     33 C27        15.7318   -1.4989    1.1588 C.ar      1 <0>        -0.1033
     34 C28        14.7055   -2.3527    0.8039 C.ar      1 <0>        -0.1181
     35 H1         -0.9603    1.4046   -1.7217 H         1 <0>         0.1216
     36 H2          0.9385    2.9307   -1.3632 H         1 <0>         0.1216
     37 H3          3.2128    2.0250   -1.0980 H         1 <0>         0.1213
     38 H4          1.6905   -1.9324   -1.5572 H         1 <0>         0.1252
     39 H5         -0.5836   -1.0266   -1.8238 H         1 <0>         0.1236
     40 H6          4.0140   -1.5849   -1.5290 H         1 <0>         0.0908
     41 H7          4.6870    0.0530   -1.7090 H         1 <0>         0.0761
     42 H8          3.1047   -2.2773    0.4892 H         1 <0>         0.0865
     43 H9          3.7917   -1.7250    2.0287 H         1 <0>         0.0719
     44 H10         1.5984   -0.3199    0.4421 H         1 <0>         0.1248
     45 H11         1.3860   -1.2350    1.9597 H         1 <0>         0.0898
     46 H12         3.6717    2.4490    1.9272 H         1 <0>         0.1352
     47 H13         5.3668    1.9383   -0.8218 H         1 <0>         0.0919
     48 H14         5.5552    2.7006    0.7786 H         1 <0>         0.0941
     49 H15         7.6618    1.5744   -0.1284 H         1 <0>         0.1013
     50 H16         7.1409    1.0037    1.4791 H         1 <0>         0.0797
     51 H17         5.9696   -1.3734    1.5255 H         1 <0>         0.0804
     52 H18         5.7476   -2.1723   -0.0509 H         1 <0>         0.1059
     53 H19        10.2571    0.2864   -0.5417 H         1 <0>         0.1435
     54 H20        12.2534   -0.6939    0.5129 H         1 <0>         0.1397
     55 H21        10.3323   -4.5115    0.5825 H         1 <0>         0.1451
     56 H22         8.3364   -3.5211   -0.4634 H         1 <0>         0.1493
     57 H23        12.4931   -1.5649    3.2364 H         1 <0>         0.1310
     58 H24        14.3316   -0.0555    3.8687 H         1 <0>         0.1331
     59 H25        16.4032   -0.0123    2.5402 H         1 <0>         0.1316
     60 H26        16.6416   -1.4779    0.5773 H         1 <0>         0.1346
     61 H27        14.8127   -2.9990   -0.0547 H         1 <0>         0.1342
@<TRIPOS>BOND
     1    1    6 ar
     2    1    2 ar
     3    1   35 1
     4    2    3 ar
     5    2   36 1
     6    3    4 ar
     7    3   37 1
     8    4    5 ar
     9    4    7 1
    10    5    6 ar
    11    5   38 1
    12    6   39 1
    13    7    8 1
    14    7   40 1
    15    7   41 1
    16    8   14 1
    17    8   18 1
    18    8    9 1
    19    9   10 1
    20    9   42 1
    21    9   43 1
    22   10   11 1
    23   10   44 1
    24   10   45 1
    25   11   12 2
    26   11   13 1
    27   13   14 2
    28   13   46 1
    29   14   15 1
    30   15   16 1
    31   15   47 1
    32   15   48 1
    33   16   17 1
    34   16   49 1
    35   16   50 1
    36   17   18 1
    37   17   19 1
    38   18   51 1
    39   18   52 1
    40   19   20 2
    41   19   21 2
    42   19   22 1
    43   22   27 ar
    44   22   23 ar
    45   23   24 ar
    46   23   53 1
    47   24   25 ar
    48   24   54 1
    49   25   26 ar
    50   25   28 1
    51   26   27 ar
    52   26   55 1
    53   27   56 1
    54   28   29 1
    55   29   34 ar
    56   29   30 ar
    57   30   31 ar
    58   30   57 1
    59   31   32 ar
    60   31   58 1
    61   32   33 ar
    62   32   59 1
    63   33   34 ar
    64   33   60 1
    65   34   61 1
@<TRIPOS>MOLECULE
CHEMBL247601__1
   61    65     0     0     0
SMALL
USER_CHARGES

@<TRIPOS>ATOM
      1 C1          0.6142    0.3762    0.9125 C.ar      1 <0>        -0.1211
      2 C2          1.6905    1.1686    0.5596 C.ar      1 <0>        -0.1196
      3 C3          2.9098    0.5874    0.2656 C.ar      1 <0>        -0.1163
      4 C4          3.0529   -0.7863    0.3250 C.ar      1 <0>        -0.0770
      5 C5          1.9768   -1.5786    0.6787 C.ar      1 <0>        -0.1139
      6 C6          0.7572   -0.9975    0.9714 C.ar      1 <0>        -0.1164
      7 C7          4.3818   -1.4200    0.0035 C.3       1 <0>        -0.0804
      8 C8          5.1164   -1.7520    1.3039 C.3       1 <0>        -0.0384
      9 C9          5.3257   -0.4597    2.0730 C.3       1 <0>        -0.1027
     10 C10         4.0724   -0.0493    2.8446 C.3       1 <0>        -0.1914
     11 C11         3.7214   -1.1909    3.7788 C.2       1 <0>         0.3902
     12 O1          3.4988   -1.0075    4.9573 O.2       1 <0>        -0.4575
     13 C12         3.6651   -2.5292    3.1805 C.2       1 <0>        -0.2240
     14 C13         4.3166   -2.7816    2.0434 C.2       1 <0>        -0.0232
     15 C14         4.1987   -4.1756    1.4531 C.3       1 <0>        -0.1152
     16 C15         5.6040   -4.6919    1.1268 C.3       1 <0>         0.1206
     17 N1          6.3094   -3.6632    0.3500 N.pl3     1 <0>        -0.9958
     18 C16         6.4902   -2.3320    0.9409 C.3       1 <0>         0.1283
     19 S1          6.8901   -3.9998   -1.1638 S.o2      1 <0>         2.6903
     20 O2          7.9472   -3.0818   -1.4068 O.2       1 <0>        -0.9506
     21 O3          7.0746   -5.4075   -1.2243 O.2       1 <0>        -0.9515
     22 C17         5.6108   -3.6099   -2.3111 C.ar      1 <0>        -0.7137
     23 C18         4.6866   -4.5744   -2.6683 C.ar      1 <0>         0.0205
     24 C19         3.6825   -4.2712   -3.5671 C.ar      1 <0>        -0.2135
     25 C20         3.6018   -2.9975   -4.1117 C.ar      1 <0>         0.1835
     26 C21         4.5305   -2.0315   -3.7515 C.ar      1 <0>        -0.1624
     27 C22         5.5295   -2.3384   -2.8482 C.ar      1 <0>         0.0187
     28 O4          2.6152   -2.6968   -4.9964 O.3       1 <0>        -0.2511
     29 C23         1.6645   -3.6377   -5.2358 C.ar      1 <0>         0.0728
     30 C24         0.6435   -3.8431   -4.3189 C.ar      1 <0>        -0.1283
     31 C25        -0.3218   -4.8002   -4.5647 C.ar      1 <0>        -0.1045
     32 C26        -0.2709   -5.5536   -5.7230 C.ar      1 <0>        -0.1128
     33 C27         0.7458   -5.3513   -6.6381 C.ar      1 <0>        -0.1039
     34 C28         1.7097   -4.3909   -6.4003 C.ar      1 <0>        -0.1191
     35 H1         -0.3371    0.8306    1.1466 H         1 <0>         0.1214
     36 H2          1.5788    2.2418    0.5133 H         1 <0>         0.1235
     37 H3          3.7505    1.2064   -0.0107 H         1 <0>         0.1246
     38 H4          2.0885   -2.6519    0.7247 H         1 <0>         0.1193
     39 H5         -0.0836   -1.6166    1.2474 H         1 <0>         0.1206
     40 H6          4.2196   -2.3352   -0.5660 H         1 <0>         0.0834
     41 H7          4.9818   -0.7268   -0.5860 H         1 <0>         0.0833
     42 H8          6.1476   -0.5940    2.7763 H         1 <0>         0.0734
     43 H9          5.5863    0.3329    1.3716 H         1 <0>         0.0854
     44 H10         4.2715    0.8538    3.4215 H         1 <0>         0.0896
     45 H11         3.2509    0.1272    2.1502 H         1 <0>         0.1257
     46 H12         3.1067   -3.3152    3.6674 H         1 <0>         0.1346
     47 H13         3.7239   -4.8395    2.1756 H         1 <0>         0.0937
     48 H14         3.6024   -4.1373    0.5415 H         1 <0>         0.0877
     49 H15         6.1461   -4.8883    2.0518 H         1 <0>         0.0861
     50 H16         5.5308   -5.6077    0.5402 H         1 <0>         0.1015
     51 H17         6.9882   -1.6722    0.2304 H         1 <0>         0.1051
     52 H18         7.0968   -2.4232    1.8419 H         1 <0>         0.0867
     53 H19         4.7501   -5.5657   -2.2444 H         1 <0>         0.1427
     54 H20         2.9611   -5.0250   -3.8461 H         1 <0>         0.1381
     55 H21         4.4699   -1.0394   -4.1739 H         1 <0>         0.1433
     56 H22         6.2500   -1.5856   -2.5642 H         1 <0>         0.1475
     57 H23         0.6037   -3.2553   -3.4137 H         1 <0>         0.1308
     58 H24        -1.1167   -4.9604   -3.8513 H         1 <0>         0.1325
     59 H25        -1.0263   -6.3017   -5.9130 H         1 <0>         0.1312
     60 H26         0.7835   -5.9414   -7.5418 H         1 <0>         0.1341
     61 H27         2.5009   -4.2300   -7.1177 H         1 <0>         0.1336
@<TRIPOS>BOND
     1    1    6 ar
     2    1    2 ar
     3    1   35 1
     4    2    3 ar
     5    2   36 1
     6    3    4 ar
     7    3   37 1
     8    4    5 ar
     9    4    7 1
    10    5    6 ar
    11    5   38 1
    12    6   39 1
    13    7    8 1
    14    7   40 1
    15    7   41 1
    16    8   14 1
    17    8   18 1
    18    8    9 1
    19    9   10 1
    20    9   42 1
    21    9   43 1
    22   10   11 1
    23   10   44 1
    24   10   45 1
    25   11   12 2
    26   11   13 1
    27   13   14 2
    28   13   46 1
    29   14   15 1
    30   15   16 1
    31   15   47 1
    32   15   48 1
    33   16   17 1
    34   16   49 1
    35   16   50 1
    36   17   18 1
    37   17   19 1
    38   18   51 1
    39   18   52 1
    40   19   20 2
    41   19   21 2
    42   19   22 1
    43   22   27 ar
    44   22   23 ar
    45   23   24 ar
    46   23   53 1
    47   24   25 ar
    48   24   54 1
    49   25   26 ar
    50   25   28 1
    51   26   27 ar
    52   26   55 1
    53   27   56 1
    54   28   29 1
    55   29   34 ar
    56   29   30 ar
    57   30   31 ar
    58   30   57 1
    59   31   32 ar
    60   31   58 1
    61   32   33 ar
    62   32   59 1
    63   33   34 ar
    64   33   60 1
    65   34   61 1
@<TRIPOS>MOLECULE
CHEMBL134277
   48    52     0     0     0
SMALL
USER_CHARGES

@<TRIPOS>ATOM
      1 C1         -0.5108    1.6667    0.4224 C.3       1 <0>        -0.1176
      2 C2         -0.4603    0.1665    0.2633 C.2       1 <0>        -0.0607
      3 C3         -0.7015   -0.3183   -0.9535 C.2       1 <0>        -0.1658
      4 C4         -0.7602   -1.7876   -1.2497 C.3       1 <0>         0.2138
      5 N1         -0.1057   -2.5622   -0.1970 N.pl3     1 <0>        -0.7343
      6 C5         -0.0942   -2.1158    1.1193 C.ar      1 <0>         0.2260
      7 C6         -0.1632   -0.7285    1.3886 C.ar      1 <0>        -0.0655
      8 C7          0.1163   -0.3145    2.6823 C.ar      1 <0>        -0.0179
      9 C8         -0.0351   -1.2489    3.7505 C.ar      1 <0>        -0.0965
     10 C9         -0.0649   -2.6026    3.4756 C.ar      1 <0>        -0.0512
     11 C10        -0.0345   -3.0281    2.1602 C.ar      1 <0>        -0.1810
     12 C11        -0.1611   -0.6992    5.1173 C.ar      1 <0>        -0.0607
     13 C12        -0.3160   -1.5418    6.2148 C.ar      1 <0>        -0.1182
     14 C13        -0.4397   -1.0069    7.4838 C.ar      1 <0>         0.0807
     15 C14        -0.4058    0.3664    7.6677 C.ar      1 <0>        -0.1217
     16 C15        -0.2463    1.2108    6.5859 C.ar      1 <0>        -0.1058
     17 C16        -0.1218    0.6890    5.3089 C.ar      1 <0>         0.1051
     18 O1          0.0483    1.5263    4.2477 O.3       1 <0>        -0.2407
     19 C17         0.6344    0.9820    3.1369 C.2       1 <0>         0.0859
     20 C18         1.6990    1.5857    2.5627 C.2       1 <0>        -0.0803
     21 C19         2.0591    2.9628    2.9436 C.2       1 <0>        -0.0997
     22 C20         3.2587    3.5842    2.4487 C.2       1 <0>        -0.1425
     23 C21         3.5294    4.8485    2.8364 C.2       1 <0>        -0.1727
     24 S1          2.1510    5.2415    3.8967 S.3       1 <0>         0.0261
     25 C22         1.2612    3.7008    3.7774 C.2       1 <0>        -0.1428
     26 F1         -0.5945   -1.8253    8.5478 F         1 <0>        -0.1363
     27 C23        -0.0594   -2.0595   -2.5868 C.3       1 <0>        -0.1549
     28 C24        -2.2254   -2.2238   -1.3644 C.3       1 <0>        -0.1603
     29 H1          0.4794    2.0848    0.2414 H         1 <0>         0.0723
     30 H2         -1.2182    2.0845   -0.2940 H         1 <0>         0.0672
     31 H3         -0.8301    1.9141    1.4348 H         1 <0>         0.0685
     32 H4         -0.8652    0.3876   -1.7613 H         1 <0>         0.1278
     33 H5          0.3317   -3.4087   -0.4209 H         1 <0>         0.4050
     34 H6         -0.1127   -3.3249    4.2768 H         1 <0>         0.1329
     35 H7          0.0365   -4.0839    1.9397 H         1 <0>         0.1299
     36 H8         -0.3360   -2.6132    6.0780 H         1 <0>         0.1424
     37 H9         -0.5025    0.7782    8.6613 H         1 <0>         0.1463
     38 H10        -0.2152    2.2800    6.7359 H         1 <0>         0.1453
     39 H11         2.2855    1.0587    1.8247 H         1 <0>         0.1432
     40 H12         3.9250    3.0531    1.7851 H         1 <0>         0.1370
     41 H13         4.3726    5.4686    2.5703 H         1 <0>         0.1862
     42 H14         0.3291    3.4201    4.2451 H         1 <0>         0.1987
     43 H15         0.9807   -1.7398   -2.5235 H         1 <0>         0.0633
     44 H16        -0.0989   -3.1262   -2.8074 H         1 <0>         0.0634
     45 H17        -0.5621   -1.5056   -3.3797 H         1 <0>         0.0742
     46 H18        -2.7074   -1.6699   -2.1699 H         1 <0>         0.0674
     47 H19        -2.2708   -3.2914   -1.5796 H         1 <0>         0.0615
     48 H20        -2.7396   -2.0204   -0.4251 H         1 <0>         0.0571
@<TRIPOS>BOND
     1    1    2 1
     2    1   29 1
     3    1   30 1
     4    1   31 1
     5    2    7 1
     6    2    3 2
     7    3    4 1
     8    3   32 1
     9    4    5 1
    10    4   27 1
    11    4   28 1
    12    5    6 1
    13    5   33 1
    14    6   11 ar
    15    6    7 ar
    16    7    8 ar
    17    8   19 1
    18    8    9 ar
    19    9   10 ar
    20    9   12 1
    21   10   11 ar
    22   10   34 1
    23   11   35 1
    24   12   17 ar
    25   12   13 ar
    26   13   14 ar
    27   13   36 1
    28   14   15 ar
    29   14   26 1
    30   15   16 ar
    31   15   37 1
    32   16   17 ar
    33   16   38 1
    34   17   18 1
    35   18   19 1
    36   19   20 2
    37   20   21 1
    38   20   39 1
    39   21   25 2
    40   21   22 1
    41   22   23 2
    42   22   40 1
    43   23   24 1
    44   23   41 1
    45   24   25 1
    46   25   42 1
    47   27   43 1
    48   27   44 1
    49   27   45 1
    50   28   46 1
    51   28   47 1
    52   28   48 1
@<TRIPOS>MOLECULE
CHEMBL382102
   54    58     0     0     0
SMALL
USER_CHARGES

@<TRIPOS>ATOM
      1 C1         -0.0187    1.5258    0.0104 C.3       1 <0>        -0.1606
      2 C2          0.0021   -0.0041    0.0020 C.3       1 <0>        -0.0072
      3 C3         -1.4431   -0.4129    0.0400 C.3       1 <0>        -0.0216
      4 C4         -1.6531   -1.6283    0.9005 C.2       1 <0>        -0.2170
      5 C5         -2.6808   -2.5549    0.9007 C.2       1 <0>         0.0695
      6 N1         -2.4564   -3.4291    1.8555 N.2       1 <0>        -0.2916
      7 N2         -1.2608   -3.0896    2.5107 N.pl3     1 <0>        -0.3116
      8 C6         -0.7576   -1.9952    1.8956 C.2       1 <0>         0.1203
      9 C7          0.5067   -1.2683    2.0974 C.2       1 <0>        -0.1089
     10 C8          0.8498   -0.3785    1.1793 C.2       1 <0>        -0.0536
     11 C9          2.2300    0.2563    1.2370 C.3       1 <0>        -0.0920
     12 C10         2.9388   -0.0940   -0.0791 C.3       1 <0>        -0.1106
     13 C11         2.0985    0.3389   -1.2794 C.3       1 <0>        -0.1580
     14 C12         0.7398   -0.3686   -1.2747 C.3       1 <0>         0.2770
     15 O1          0.9213   -1.7865   -1.3710 O.3       1 <0>        -0.3512
     16 C13         0.8078   -2.1321   -2.7643 C.3       1 <0>         0.0880
     17 H1         -0.0134   -2.8329   -2.9148 H         1 <0>         0.1013
     18 C14         0.5142   -0.7984   -3.4863 C.3       1 <0>         0.0864
     19 H2          1.4312   -0.3676   -3.8883 H         1 <0>         0.0930
     20 O2         -0.0217    0.0334   -2.4276 O.3       1 <0>        -0.3543
     21 C15        -0.5033   -0.9971   -4.5800 C.2       1 <0>        -0.1729
     22 C16        -1.5955   -0.2738   -4.5979 C.2       1 <0>        -0.1542
     23 C17         2.0997   -2.7264   -3.2630 C.2       1 <0>        -0.1852
     24 C18         3.0729   -2.9771   -2.4226 C.2       1 <0>        -0.1615
     25 C19        -0.6940   -3.7613    3.6020 C.ar      1 <0>         0.1478
     26 C20         0.6865   -3.8531    3.7212 C.ar      1 <0>        -0.1037
     27 C21         1.2432   -4.5151    4.7977 C.ar      1 <0>        -0.1307
     28 C22         0.4257   -5.0872    5.7581 C.ar      1 <0>         0.0974
     29 C23        -0.9513   -4.9970    5.6409 C.ar      1 <0>        -0.1324
     30 C24        -1.5118   -4.3310    4.5689 C.ar      1 <0>        -0.0818
     31 F1          0.9722   -5.7344    6.8106 F         1 <0>        -0.1336
     32 H3          1.0035    1.9028    0.0449 H         1 <0>         0.0703
     33 H4         -0.5090    1.8875   -0.8933 H         1 <0>         0.0712
     34 H5         -0.5652    1.8769    0.8857 H         1 <0>         0.0645
     35 H6         -2.0356    0.4111    0.4375 H         1 <0>         0.0788
     36 H7         -1.7773   -0.6329   -0.9739 H         1 <0>         0.0857
     37 H8         -3.5262   -2.5586    0.2287 H         1 <0>         0.1875
     38 H9          1.1334   -1.4610    2.9556 H         1 <0>         0.1338
     39 H10         2.1383    1.3381    1.3338 H         1 <0>         0.0851
     40 H11         2.7903   -0.1476    2.0803 H         1 <0>         0.0798
     41 H12         3.9024    0.4143   -0.1138 H         1 <0>         0.0737
     42 H13         3.1003   -1.1710   -0.1239 H         1 <0>         0.0729
     43 H14         1.9419    1.4168   -1.2378 H         1 <0>         0.0894
     44 H15         2.6298    0.0895   -2.1979 H         1 <0>         0.0723
     45 H16        -0.3322   -1.7357   -5.3491 H         1 <0>         0.1257
     46 H17        -1.7666    0.4648   -3.8288 H         1 <0>         0.1087
     47 H18        -2.3247   -0.4162   -5.3817 H         1 <0>         0.1025
     48 H19         2.2234   -2.9455   -4.3133 H         1 <0>         0.1216
     49 H20         3.9988   -3.4029   -2.7800 H         1 <0>         0.0997
     50 H21         2.9493   -2.7579   -1.3723 H         1 <0>         0.1088
     51 H22         1.3243   -3.4075    2.9722 H         1 <0>         0.1430
     52 H23         2.3168   -4.5871    4.8905 H         1 <0>         0.1470
     53 H24        -1.5871   -5.4441    6.3908 H         1 <0>         0.1468
     54 H25        -2.5856   -4.2567    4.4804 H         1 <0>         0.1446
@<TRIPOS>BOND
     1    1    2 1
     2    1   32 1
     3    1   33 1
     4    1   34 1
     5    2   10 1
     6    2   14 1
     7    2    3 1
     8    3    4 1
     9    3   35 1
    10    3   36 1
    11    4    8 2
    12    4    5 1
    13    5    6 2
    14    5   37 1
    15    6    7 1
    16    7    8 1
    17    7   25 1
    18    8    9 1
    19    9   10 2
    20    9   38 1
    21   10   11 1
    22   11   12 1
    23   11   39 1
    24   11   40 1
    25   12   13 1
    26   12   41 1
    27   12   42 1
    28   13   14 1
    29   13   43 1
    30   13   44 1
    31   14   20 1
    32   14   15 1
    33   15   16 1
    34   16   17 1
    35   16   18 1
    36   16   23 1
    37   18   19 1
    38   18   20 1
    39   18   21 1
    40   21   22 2
    41   21   45 1
    42   22   46 1
    43   22   47 1
    44   23   24 2
    45   23   48 1
    46   24   49 1
    47   24   50 1
    48   25   30 ar
    49   25   26 ar
    50   26   27 ar
    51   26   51 1
    52   27   28 ar
    53   27   52 1
    54   28   29 ar
    55   28   31 1
    56   29   30 ar
    57   29   53 1
    58   30   54 1
@<TRIPOS>MOLECULE
CHEMBL247234
   62    65     0     0     0
SMALL
USER_CHARGES

@<TRIPOS>ATOM
      1 C1          1.0911    2.0416    0.4180 C.3       1 <0>        -0.1382
      2 C2          1.1687    0.5214    0.5727 C.3       1 <0>        -0.0383
      3 C3          2.1820    0.1708    1.6642 C.3       1 <0>        -0.1412
      4 C4         -0.2076   -0.0227    0.9607 C.3       1 <0>        -0.1477
      5 C5          1.6028   -0.0948   -0.7323 C.ar      1 <0>        -0.0072
      6 C6          0.7790   -0.9977   -1.3781 C.ar      1 <0>        -0.1412
      7 C7          1.1772   -1.5629   -2.5752 C.ar      1 <0>        -0.0160
      8 C8          2.3988   -1.2249   -3.1266 C.ar      1 <0>        -0.6844
      9 C9          3.2222   -0.3213   -2.4813 C.ar      1 <0>        -0.0153
     10 C10         2.8222    0.2472   -1.2864 C.ar      1 <0>        -0.1334
     11 S1          2.9068   -1.9462   -4.6518 S.o2      1 <0>         2.6868
     12 O1          4.3260   -1.8799   -4.6797 O.2       1 <0>        -0.9513
     13 O2          2.1989   -3.1719   -4.7772 O.2       1 <0>        -0.9514
     14 N1          2.3630   -0.9593   -5.8653 N.pl3     1 <0>        -0.9952
     15 C11         1.0348   -1.1650   -6.4594 C.3       1 <0>         0.1203
     16 C12         0.2149    0.1151   -6.2682 C.3       1 <0>        -0.1155
     17 C13         1.0396    1.2990   -6.7413 C.2       1 <0>        -0.0226
     18 C14         0.4692    2.1460   -7.5977 C.2       1 <0>        -0.2244
     19 C15         1.2109    3.3196   -8.0718 C.2       1 <0>         0.3898
     20 O3          0.9215    3.8853   -9.1054 O.2       1 <0>        -0.4571
     21 C16         2.3597    3.7863   -7.1987 C.3       1 <0>        -0.1882
     22 C17         3.2272    2.5660   -6.8959 C.3       1 <0>        -0.1021
     23 C18         2.4350    1.4614   -6.2192 C.3       1 <0>        -0.0382
     24 C19         3.1957    0.1413   -6.3639 C.3       1 <0>         0.1287
     25 C20         2.3520    1.7801   -4.7251 C.3       1 <0>        -0.0807
     26 C21         1.6725    3.1113   -4.5324 C.ar      1 <0>        -0.0758
     27 C22         2.4282    4.2473   -4.3102 C.ar      1 <0>        -0.1170
     28 C23         1.8050    5.4684   -4.1335 C.ar      1 <0>        -0.1194
     29 C24         0.4260    5.5537   -4.1793 C.ar      1 <0>        -0.1214
     30 C25        -0.3297    4.4179   -4.4024 C.ar      1 <0>        -0.1160
     31 C26         0.2938    3.1975   -4.5834 C.ar      1 <0>        -0.1131
     32 H1          2.0717    2.4292    0.1416 H         1 <0>         0.0588
     33 H2          0.3693    2.2913   -0.3596 H         1 <0>         0.0580
     34 H3          0.7772    2.4872    1.3619 H         1 <0>         0.0625
     35 H4          1.8680    0.6165    2.6080 H         1 <0>         0.0636
     36 H5          2.2373   -0.9122    1.7743 H         1 <0>         0.0585
     37 H6          3.1625    0.5584    1.3877 H         1 <0>         0.0593
     38 H7         -0.9295    0.2271    0.1831 H         1 <0>         0.0604
     39 H8         -0.1523   -1.1057    1.0709 H         1 <0>         0.0608
     40 H9         -0.5216    0.4230    1.9046 H         1 <0>         0.0627
     41 H10        -0.1755   -1.2618   -0.9473 H         1 <0>         0.1365
     42 H11         0.5339   -2.2689   -3.0794 H         1 <0>         0.1380
     43 H12         4.1768   -0.0574   -2.9119 H         1 <0>         0.1375
     44 H13         3.4638    0.9560   -0.7840 H         1 <0>         0.1310
     45 H14         1.1383   -1.3784   -7.5233 H         1 <0>         0.0860
     46 H15         0.5361   -1.9972   -5.9625 H         1 <0>         0.1016
     47 H16        -0.7027    0.0520   -6.8530 H         1 <0>         0.0938
     48 H17        -0.0295    0.2383   -5.2131 H         1 <0>         0.0879
     49 H18        -0.5386    1.9683   -7.9429 H         1 <0>         0.1351
     50 H19         2.9470    4.5363   -7.7286 H         1 <0>         0.0899
     51 H20         1.9727    4.2056   -6.2700 H         1 <0>         0.1234
     52 H21         3.6414    2.1848   -7.8293 H         1 <0>         0.0733
     53 H22         4.0464    2.8664   -6.2426 H         1 <0>         0.0852
     54 H23         4.1190    0.1898   -5.7866 H         1 <0>         0.1032
     55 H24         3.4308   -0.0271   -7.4149 H         1 <0>         0.0865
     56 H25         1.7789    1.0031   -4.2192 H         1 <0>         0.0842
     57 H26         3.3573    1.8212   -4.3059 H         1 <0>         0.0819
     58 H27         3.5056    4.1807   -4.2744 H         1 <0>         0.1234
     59 H28         2.3954    6.3558   -3.9592 H         1 <0>         0.1229
     60 H29        -0.0609    6.5076   -4.0405 H         1 <0>         0.1210
     61 H30        -1.4070    4.4844   -4.4379 H         1 <0>         0.1206
     62 H31        -0.2965    2.3107   -4.7614 H         1 <0>         0.1192
@<TRIPOS>BOND
     1    1    2 1
     2    1   32 1
     3    1   33 1
     4    1   34 1
     5    2    3 1
     6    2    4 1
     7    2    5 1
     8    3   35 1
     9    3   36 1
    10    3   37 1
    11    4   38 1
    12    4   39 1
    13    4   40 1
    14    5   10 ar
    15    5    6 ar
    16    6    7 ar
    17    6   41 1
    18    7    8 ar
    19    7   42 1
    20    8    9 ar
    21    8   11 1
    22    9   10 ar
    23    9   43 1
    24   10   44 1
    25   11   12 2
    26   11   13 2
    27   11   14 1
    28   14   24 1
    29   14   15 1
    30   15   16 1
    31   15   45 1
    32   15   46 1
    33   16   17 1
    34   16   47 1
    35   16   48 1
    36   17   23 1
    37   17   18 2
    38   18   19 1
    39   18   49 1
    40   19   20 2
    41   19   21 1
    42   21   22 1
    43   21   50 1
    44   21   51 1
    45   22   23 1
    46   22   52 1
    47   22   53 1
    48   23   24 1
    49   23   25 1
    50   24   54 1
    51   24   55 1
    52   25   26 1
    53   25   56 1
    54   25   57 1
    55   26   31 ar
    56   26   27 ar
    57   27   28 ar
    58   27   58 1
    59   28   29 ar
    60   28   59 1
    61   29   30 ar
    62   29   60 1
    63   30   31 ar
    64   30   61 1
    65   31   62 1
@<TRIPOS>MOLECULE
CHEMBL219140
   53    55     0     0     0
SMALL
USER_CHARGES

@<TRIPOS>ATOM
      1 C1          0.8987   -0.2806    0.9047 C.3       1 <0>        -0.1551
      2 C2         -0.0825   -0.5824   -0.2298 C.3       1 <0>        -0.0125
      3 C3          0.2791   -1.9223   -0.8739 C.3       1 <0>        -0.1358
      4 C4         -1.5043   -0.6534    0.3310 C.3       1 <0>        -0.1533
      5 C5         -1.6541    0.3567    1.4704 C.3       1 <0>         0.0792
      6 C6         -3.0341    0.2004    2.1124 C.3       1 <0>         0.0612
      7 N1         -3.2132    1.2276    3.1414 N.pl3     1 <0>        -0.4955
      8 C7         -2.6870    1.0275    4.3732 C.2       1 <0>         0.1840
      9 C8         -2.8132    1.9300    5.3695 C.2       1 <0>        -0.3046
     10 C9         -3.5138    3.1371    5.1493 C.2       1 <0>         0.4245
     11 O1         -3.6376    3.9644    6.0373 O.2       1 <0>        -0.4663
     12 C10        -4.0909    3.3649    3.8091 C.ar      1 <0>         0.0180
     13 C11        -3.9066    2.3740    2.8312 C.ar      1 <0>         0.1569
     14 C12        -4.4409    2.5749    1.5573 C.ar      1 <0>        -0.1448
     15 C13        -5.1257    3.7496    1.3153 C.ar      1 <0>        -0.1052
     16 C14        -5.2630    4.6870    2.3316 C.ar      1 <0>         0.0686
     17 N2         -4.7624    4.4745    3.5281 N.ar      1 <0>        -0.4019
     18 C15        -1.5069    1.7754    0.9168 C.3       1 <0>         0.4630
     19 F1         -2.4277    1.9700   -0.1183 F         1 <0>        -0.1697
     20 F2         -1.7495    2.7015    1.9370 F         1 <0>        -0.1681
     21 F3         -0.2089    1.9520    0.4257 F         1 <0>        -0.1475
     22 O2         -0.6426    0.1211    2.4519 O.3       1 <0>        -0.5178
     23 C16        -0.0048    0.5099   -1.2651 C.ar      1 <0>        -0.0656
     24 C17        -1.1458    0.9118   -1.9328 C.ar      1 <0>        -0.1384
     25 C18        -1.0749    1.9155   -2.8835 C.ar      1 <0>         0.0710
     26 C19         0.1393    2.5178   -3.1671 C.ar      1 <0>        -0.1215
     27 C20         1.2815    2.1180   -2.5011 C.ar      1 <0>        -0.1752
     28 C21         1.2109    1.1162   -1.5440 C.ar      1 <0>         0.1279
     29 O3          2.3332    0.7257   -0.8837 O.3       1 <0>        -0.2949
     30 C22         3.5504    1.3937   -1.2218 C.3       1 <0>         0.0152
     31 F4         -2.1913    2.3074   -3.5357 F         1 <0>        -0.1396
     32 H1          1.9201   -0.3950    0.5416 H         1 <0>         0.0701
     33 H2          0.7490    0.7416    1.2522 H         1 <0>         0.0922
     34 H3          0.7261   -0.9734    1.7283 H         1 <0>         0.0580
     35 H4          0.1383   -2.7238   -0.1488 H         1 <0>         0.0618
     36 H5         -0.3640   -2.0959   -1.7368 H         1 <0>         0.0557
     37 H6          1.3205   -1.9017   -1.1952 H         1 <0>         0.0652
     38 H7         -2.2184   -0.4191   -0.4585 H         1 <0>         0.0969
     39 H8         -1.6963   -1.6578    0.7083 H         1 <0>         0.1023
     40 H9         -3.8045    0.3121    1.3495 H         1 <0>         0.1171
     41 H10        -3.1135   -0.7871    2.5671 H         1 <0>         0.1234
     42 H11        -2.1470    0.1122    4.5658 H         1 <0>         0.1639
     43 H12        -2.3779    1.7287    6.3371 H         1 <0>         0.1576
     44 H13        -4.3217    1.8323    0.7822 H         1 <0>         0.1456
     45 H14        -5.5520    3.9386    0.3412 H         1 <0>         0.1468
     46 H15        -5.7994    5.6040    2.1372 H         1 <0>         0.1661
     47 H16        -0.6755   -0.7612    2.8466 H         1 <0>         0.3915
     48 H17        -2.0933    0.4424   -1.7131 H         1 <0>         0.1433
     49 H18         0.1934    3.3002   -3.9095 H         1 <0>         0.1366
     50 H19         2.2285    2.5877   -2.7227 H         1 <0>         0.1375
     51 H20         3.7656    1.2433   -2.2797 H         1 <0>         0.0551
     52 H21         3.4479    2.4599   -1.0199 H         1 <0>         0.0557
     53 H22         4.3661    0.9874   -0.6238 H         1 <0>         0.1015
@<TRIPOS>BOND
     1    1    2 1
     2    1   32 1
     3    1   33 1
     4    1   34 1
     5    2    3 1
     6    2    4 1
     7    2   23 1
     8    3   35 1
     9    3   36 1
    10    3   37 1
    11    4    5 1
    12    4   38 1
    13    4   39 1
    14    5    6 1
    15    5   18 1
    16    5   22 1
    17    6    7 1
    18    6   40 1
    19    6   41 1
    20    7   13 1
    21    7    8 1
    22    8    9 2
    23    8   42 1
    24    9   10 1
    25    9   43 1
    26   10   11 2
    27   10   12 1
    28   12   17 ar
    29   12   13 ar
    30   13   14 ar
    31   14   15 ar
    32   14   44 1
    33   15   16 ar
    34   15   45 1
    35   16   17 ar
    36   16   46 1
    37   18   19 1
    38   18   20 1
    39   18   21 1
    40   22   47 1
    41   23   28 ar
    42   23   24 ar
    43   24   25 ar
    44   24   48 1
    45   25   26 ar
    46   25   31 1
    47   26   27 ar
    48   26   49 1
    49   27   28 ar
    50   27   50 1
    51   28   29 1
    52   29   30 1
    53   30   51 1
    54   30   52 1
    55   30   53 1
@<TRIPOS>MOLECULE
CHEMBL219140__1
   53    55     0     0     0
SMALL
USER_CHARGES

@<TRIPOS>ATOM
      1 C1          0.1988    0.4983   -1.5632 C.3       1 <0>        -0.1375
      2 C2         -0.0995    0.6102   -0.0668 C.3       1 <0>        -0.0109
      3 C3         -0.1592    2.0860    0.3324 C.3       1 <0>        -0.1582
      4 C4         -1.4435   -0.0549    0.2365 C.3       1 <0>        -0.1562
      5 C5         -2.0834    0.6191    1.4519 C.3       1 <0>         0.0773
      6 C6         -3.4729    0.0253    1.6917 C.3       1 <0>         0.0610
      7 N1         -4.0857    0.6707    2.8554 N.pl3     1 <0>        -0.4949
      8 C7         -3.8842    0.1424    4.0861 C.2       1 <0>         0.1782
      9 C8         -4.4177    0.6835    5.2021 C.2       1 <0>        -0.3029
     10 C9         -5.2195    1.8435    5.1152 C.2       1 <0>         0.4250
     11 O1         -5.7095    2.3467    6.1127 O.2       1 <0>        -0.4647
     12 C10        -5.4448    2.4275    3.7776 C.ar      1 <0>         0.0195
     13 C11        -4.8467    1.8013    2.6720 C.ar      1 <0>         0.1581
     14 C12        -5.0448    2.3426    1.4006 C.ar      1 <0>        -0.1324
     15 C13        -5.8206    3.4798    1.2898 C.ar      1 <0>        -0.1082
     16 C14        -6.3756    4.0471    2.4302 C.ar      1 <0>         0.0691
     17 N2         -6.1869    3.5160    3.6175 N.ar      1 <0>        -0.4014
     18 C15        -1.2086    0.3841    2.6849 C.3       1 <0>         0.4599
     19 F1          0.0792    0.8742    2.4432 F         1 <0>        -0.1428
     20 F2         -1.7625    1.0500    3.7835 F         1 <0>        -0.1636
     21 F3         -1.1426   -0.9869    2.9554 F         1 <0>        -0.1704
     22 O2         -2.2004    2.0229    1.2114 O.3       1 <0>        -0.5142
     23 C16         0.9894   -0.0780    0.7154 C.ar      1 <0>        -0.0511
     24 C17         0.7091   -1.2316    1.4223 C.ar      1 <0>        -0.1608
     25 C18         1.7092   -1.8643    2.1405 C.ar      1 <0>         0.0754
     26 C19         2.9916   -1.3420    2.1518 C.ar      1 <0>        -0.1254
     27 C20         3.2746   -0.1889    1.4460 C.ar      1 <0>        -0.1698
     28 C21         2.2746    0.4431    0.7213 C.ar      1 <0>         0.1182
     29 O3          2.5531    1.5749    0.0216 O.3       1 <0>        -0.3023
     30 C22         3.8981    2.0548    0.0728 C.3       1 <0>         0.0208
     31 F4          1.4338   -2.9922    2.8312 F         1 <0>        -0.1389
     32 H1          1.1107    1.0490   -1.7941 H         1 <0>         0.0714
     33 H2          0.3302   -0.5503   -1.8301 H         1 <0>         0.0547
     34 H3         -0.6320    0.9165   -2.1316 H         1 <0>         0.0601
     35 H4         -0.9784    2.5727   -0.1969 H         1 <0>         0.0581
     36 H5         -0.3230    2.1654    1.4071 H         1 <0>         0.0933
     37 H6          0.7812    2.5714    0.0713 H         1 <0>         0.0637
     38 H7         -2.1028    0.0485   -0.6253 H         1 <0>         0.1025
     39 H8         -1.2860   -1.1124    0.4486 H         1 <0>         0.0997
     40 H9         -4.0962    0.1927    0.8132 H         1 <0>         0.1223
     41 H10        -3.3837   -1.0455    1.8751 H         1 <0>         0.1203
     42 H11        -3.2747   -0.7445    4.1781 H         1 <0>         0.1600
     43 H12        -4.2313    0.2283    6.1636 H         1 <0>         0.1581
     44 H13        -4.6032    1.8849    0.5277 H         1 <0>         0.1381
     45 H14        -5.9947    3.9260    0.3218 H         1 <0>         0.1471
     46 H15        -6.9815    4.9364    2.3381 H         1 <0>         0.1657
     47 H16        -2.7428    2.2464    0.4426 H         1 <0>         0.3870
     48 H17        -0.2908   -1.6397    1.4148 H         1 <0>         0.1537
     49 H18         3.7708   -1.8362    2.7131 H         1 <0>         0.1369
     50 H19         4.2748    0.2185    1.4554 H         1 <0>         0.1378
     51 H20         4.1660    2.2758    1.1060 H         1 <0>         0.0560
     52 H21         4.5708    1.2935   -0.3221 H         1 <0>         0.0557
     53 H22         3.9835    2.9613   -0.5266 H         1 <0>         0.1018
@<TRIPOS>BOND
     1    1    2 1
     2    1   32 1
     3    1   33 1
     4    1   34 1
     5    2    3 1
     6    2    4 1
     7    2   23 1
     8    3   35 1
     9    3   36 1
    10    3   37 1
    11    4    5 1
    12    4   38 1
    13    4   39 1
    14    5    6 1
    15    5   18 1
    16    5   22 1
    17    6    7 1
    18    6   40 1
    19    6   41 1
    20    7   13 1
    21    7    8 1
    22    8    9 2
    23    8   42 1
    24    9   10 1
    25    9   43 1
    26   10   11 2
    27   10   12 1
    28   12   17 ar
    29   12   13 ar
    30   13   14 ar
    31   14   15 ar
    32   14   44 1
    33   15   16 ar
    34   15   45 1
    35   16   17 ar
    36   16   46 1
    37   18   19 1
    38   18   20 1
    39   18   21 1
    40   22   47 1
    41   23   28 ar
    42   23   24 ar
    43   24   25 ar
    44   24   48 1
    45   25   26 ar
    46   25   31 1
    47   26   27 ar
    48   26   49 1
    49   27   28 ar
    50   27   50 1
    51   28   29 1
    52   29   30 1
    53   30   51 1
    54   30   52 1
    55   30   53 1
@<TRIPOS>MOLECULE
CHEMBL78646
   43    46     0     0     0
SMALL
USER_CHARGES

@<TRIPOS>ATOM
      1 C1         -0.0167    1.3781    0.0096 C.ar      1 <0>        -0.1192
      2 C2          1.1709    2.0855    0.0021 C.ar      1 <0>        -0.1201
      3 C3          2.3773    1.4107   -0.0130 C.ar      1 <0>        -0.0982
      4 C4          2.3960    0.0285   -0.0201 C.ar      1 <0>        -0.0858
      5 C5          1.2084   -0.6789   -0.0117 C.ar      1 <0>        -0.1171
      6 C6          0.0021   -0.0041    0.0020 C.ar      1 <0>        -0.1205
      7 C7          3.7112   -0.7071   -0.0376 C.3       1 <0>        -0.0751
      8 C8          4.1714   -0.9633    1.3989 C.3       1 <0>         0.0200
      9 C9          3.0467   -1.7154    2.0605 C.3       1 <0>        -0.1102
     10 C10         3.5454   -2.7784    3.0387 C.3       1 <0>        -0.1662
     11 C11         4.5339   -3.6600    2.2976 C.2       1 <0>         0.3874
     12 O1          4.4119   -4.8661    2.2472 O.2       1 <0>        -0.4519
     13 C12         5.6496   -2.9575    1.6437 C.2       1 <0>        -0.2261
     14 C13         5.4695   -1.6895    1.2820 C.2       1 <0>        -0.0314
     15 C14         6.6445   -0.8920    0.7420 C.3       1 <0>        -0.0948
     16 C15         6.9076    0.2472    1.7253 C.3       1 <0>        -0.0782
     17 C16         5.6403    0.9477    2.1342 C.ar      1 <0>        -0.0541
     18 C17         4.3823    0.3970    2.0009 C.ar      1 <0>        -0.0757
     19 C18         3.2657    1.1040    2.4245 C.ar      1 <0>        -0.0823
     20 C19         3.3951    2.3637    2.9700 C.ar      1 <0>        -0.1475
     21 C20         4.6561    2.9289    3.0940 C.ar      1 <0>         0.1110
     22 C21         5.7692    2.2209    2.6775 C.ar      1 <0>        -0.1513
     23 O2          4.7971    4.1732    3.6220 O.3       1 <0>        -0.4999
     24 H1         -0.9591    1.9053    0.0259 H         1 <0>         0.1206
     25 H2          1.1563    3.1654    0.0076 H         1 <0>         0.1206
     26 H3          3.3051    1.9634   -0.0196 H         1 <0>         0.1190
     27 H4          1.2231   -1.7588   -0.0176 H         1 <0>         0.1219
     28 H5         -0.9258   -0.5567    0.0082 H         1 <0>         0.1217
     29 H6          3.5884   -1.6586   -0.5549 H         1 <0>         0.0799
     30 H7          4.4573   -0.1052   -0.5563 H         1 <0>         0.0799
     31 H8          2.4189   -1.0067    2.6006 H         1 <0>         0.0891
     32 H9          2.4459   -2.1994    1.2906 H         1 <0>         0.0811
     33 H10         4.0392   -2.2997    3.8844 H         1 <0>         0.0992
     34 H11         2.7067   -3.3788    3.3910 H         1 <0>         0.0945
     35 H12         6.5949   -3.4526    1.4777 H         1 <0>         0.1421
     36 H13         7.5248   -1.5307    0.6698 H         1 <0>         0.0868
     37 H14         6.3980   -0.4859   -0.2390 H         1 <0>         0.0857
     38 H15         7.3910   -0.1574    2.6145 H         1 <0>         0.0826
     39 H16         7.5768    0.9700    1.2587 H         1 <0>         0.0842
     40 H17         2.2849    0.6629    2.3255 H         1 <0>         0.1315
     41 H18         2.5211    2.9067    3.2981 H         1 <0>         0.1282
     42 H19         6.7499    2.6623    2.7759 H         1 <0>         0.1272
     43 H20         4.9161    4.1821    4.5816 H         1 <0>         0.3914
@<TRIPOS>BOND
     1    1    6 ar
     2    1    2 ar
     3    1   24 1
     4    2    3 ar
     5    2   25 1
     6    3    4 ar
     7    3   26 1
     8    4    5 ar
     9    4    7 1
    10    5    6 ar
    11    5   27 1
    12    6   28 1
    13    7    8 1
    14    7   29 1
    15    7   30 1
    16    8   14 1
    17    8   18 1
    18    8    9 1
    19    9   10 1
    20    9   31 1
    21    9   32 1
    22   10   11 1
    23   10   33 1
    24   10   34 1
    25   11   12 2
    26   11   13 1
    27   13   14 2
    28   13   35 1
    29   14   15 1
    30   15   16 1
    31   15   36 1
    32   15   37 1
    33   16   17 1
    34   16   38 1
    35   16   39 1
    36   17   22 ar
    37   17   18 ar
    38   18   19 ar
    39   19   20 ar
    40   19   40 1
    41   20   21 ar
    42   20   41 1
    43   21   22 ar
    44   21   23 1
    45   22   42 1
    46   23   43 1
@<TRIPOS>MOLECULE
CHEMBL264560
   61    65     0     0     0
SMALL
USER_CHARGES

@<TRIPOS>ATOM
      1 C1          0.5822   -0.2445    0.3760 C.3       1 <0>        -0.1349
      2 C2          0.5704   -1.4316    1.3014 C.2       1 <0>        -0.0562
      3 C3          0.7276   -2.6246    0.7163 C.2       1 <0>        -0.1794
      4 C4          0.7664   -3.8825    1.5374 C.3       1 <0>         0.2117
      5 N1          1.3372   -3.5882    2.8589 N.pl3     1 <0>        -0.7331
      6 C5          0.9240   -2.4279    3.5115 C.ar      1 <0>         0.2231
      7 C6          0.4163   -1.3396    2.7595 C.ar      1 <0>        -0.0923
      8 C7         -0.2686   -0.3548    3.4523 C.ar      1 <0>        -0.0527
      9 C8         -0.1583   -0.2857    4.8552 C.ar      1 <0>        -0.0799
     10 C9          0.5953   -1.2256    5.5457 C.ar      1 <0>        -0.0424
     11 C10         1.1186   -2.3086    4.8735 C.ar      1 <0>        -0.1916
     12 C11        -0.8622    0.8002    5.5789 C.ar      1 <0>        -0.1313
     13 C12        -1.2692    1.9242    4.8434 C.ar      1 <0>         0.1664
     14 C13        -1.9038    2.9805    5.4680 C.ar      1 <0>        -0.1747
     15 C14        -2.1608    2.9291    6.8255 C.ar      1 <0>        -0.0507
     16 C15        -1.7802    1.8220    7.5580 C.ar      1 <0>        -0.2393
     17 C16        -1.1360    0.7547    6.9411 C.ar      1 <0>         0.1651
     18 O1         -0.8155   -0.3257    7.6997 O.3       1 <0>        -0.3102
     19 C17        -1.1436   -0.2632    9.0891 C.3       1 <0>         0.0245
     20 O2         -1.0489    1.9451    3.5036 O.3       1 <0>        -0.2943
     21 C18        -1.1570    0.6841    2.8232 C.3       1 <0>         0.1115
     22 C19        -2.6069    0.2087    2.9351 C.3       1 <0>        -0.0803
     23 C20        -3.0205   -0.4886    1.6371 C.3       1 <0>        -0.1027
     24 C21        -2.3452    0.1578    0.4404 C.3       1 <0>        -0.1615
     25 C22        -2.8036    1.5815    0.1782 C.3       1 <0>        -0.1161
     26 C23        -2.3658    2.5098    1.3134 C.3       1 <0>        -0.1225
     27 C24        -3.4057    2.4535    2.4119 C.2       1 <0>        -0.1278
     28 C25        -3.5162    1.3986    3.1554 C.2       1 <0>        -0.1552
     29 C26         1.6361   -4.9273    0.8354 C.3       1 <0>        -0.1538
     30 C27        -0.6478   -4.4378    1.7031 C.3       1 <0>        -0.1574
     31 H1          0.3689    0.6611    0.9438 H         1 <0>         0.0682
     32 H2          1.5632   -0.1578   -0.0912 H         1 <0>         0.0759
     33 H3         -0.1768   -0.3773   -0.3949 H         1 <0>         0.0845
     34 H4          0.8305   -2.6717   -0.3558 H         1 <0>         0.1252
     35 H5          1.9775   -4.1899    3.2687 H         1 <0>         0.4029
     36 H6          0.8061   -1.1104    6.5963 H         1 <0>         0.1346
     37 H7          1.6864   -3.0578    5.4061 H         1 <0>         0.1251
     38 H8         -2.1984    3.8479    4.8950 H         1 <0>         0.1315
     39 H9         -2.6642    3.7510    7.3085 H         1 <0>         0.1307
     40 H10        -1.9874    1.7805    8.6182 H         1 <0>         0.1310
     41 H11        -0.8347   -1.1875    9.5773 H         1 <0>         0.1007
     42 H12        -0.6263    0.5799    9.5470 H         1 <0>         0.0573
     43 H13        -2.2199   -0.1343    9.2029 H         1 <0>         0.0569
     44 H14        -0.9477    0.8679    1.7868 H         1 <0>         0.1567
     45 H15        -2.7013   -0.4837    3.7715 H         1 <0>         0.0796
     46 H16        -2.7337   -1.5390    1.6869 H         1 <0>         0.0646
     47 H17        -4.1019   -0.4177    1.5205 H         1 <0>         0.0684
     48 H18        -1.2683    0.1637    0.6090 H         1 <0>         0.0917
     49 H19        -2.5533   -0.4439   -0.4443 H         1 <0>         0.0640
     50 H20        -2.3701    1.9312   -0.7587 H         1 <0>         0.0642
     51 H21        -3.8905    1.5996    0.0988 H         1 <0>         0.0631
     52 H22        -1.4028    2.1811    1.7040 H         1 <0>         0.1007
     53 H23        -2.2830    3.5305    0.9399 H         1 <0>         0.0654
     54 H24        -4.0591    3.2975    2.5767 H         1 <0>         0.1056
     55 H25        -4.2614    1.3678    3.9364 H         1 <0>         0.1060
     56 H26         2.6480   -4.5392    0.7195 H         1 <0>         0.0629
     57 H27         1.6626   -5.8386    1.4327 H         1 <0>         0.0631
     58 H28         1.2171   -5.1484   -0.1463 H         1 <0>         0.0743
     59 H29        -1.0678   -4.6609    0.7223 H         1 <0>         0.0661
     60 H30        -0.6126   -5.3496    2.2992 H         1 <0>         0.0594
     61 H31        -1.2717   -3.6988    2.2059 H         1 <0>         0.0579
@<TRIPOS>BOND
     1    1    2 1
     2    1   31 1
     3    1   32 1
     4    1   33 1
     5    2    7 1
     6    2    3 2
     7    3    4 1
     8    3   34 1
     9    4    5 1
    10    4   29 1
    11    4   30 1
    12    5    6 1
    13    5   35 1
    14    6   11 ar
    15    6    7 ar
    16    7    8 ar
    17    8   21 1
    18    8    9 ar
    19    9   10 ar
    20    9   12 1
    21   10   11 ar
    22   10   36 1
    23   11   37 1
    24   12   17 ar
    25   12   13 ar
    26   13   14 ar
    27   13   20 1
    28   14   15 ar
    29   14   38 1
    30   15   16 ar
    31   15   39 1
    32   16   17 ar
    33   16   40 1
    34   17   18 1
    35   18   19 1
    36   19   41 1
    37   19   42 1
    38   19   43 1
    39   20   21 1
    40   21   22 1
    41   21   44 1
    42   22   28 1
    43   22   23 1
    44   22   45 1
    45   23   24 1
    46   23   46 1
    47   23   47 1
    48   24   25 1
    49   24   48 1
    50   24   49 1
    51   25   26 1
    52   25   50 1
    53   25   51 1
    54   26   27 1
    55   26   52 1
    56   26   53 1
    57   27   28 2
    58   27   54 1
    59   28   55 1
    60   29   56 1
    61   29   57 1
    62   29   58 1
    63   30   59 1
    64   30   60 1
    65   30   61 1
@<TRIPOS>MOLECULE
CHEMBL264560__1
   61    65     0     0     0
SMALL
USER_CHARGES

@<TRIPOS>ATOM
      1 C1         -0.3506    2.3802    0.2900 C.3       1 <0>        -0.1204
      2 C2         -0.0631    0.9561   -0.1124 C.2       1 <0>        -0.0533
      3 C3         -0.1200    0.6735   -1.4148 C.2       1 <0>        -0.1824
      4 C4          0.1764   -0.7089   -1.9235 C.3       1 <0>         0.2134
      5 N1          1.1414   -1.3572   -1.0284 N.pl3     1 <0>        -0.7338
      6 C5          0.9847   -1.2142    0.3496 C.ar      1 <0>         0.2244
      7 C6          0.2852   -0.0934    0.8555 C.ar      1 <0>        -0.0989
      8 C7         -0.1095   -0.1248    2.1864 C.ar      1 <0>        -0.0453
      9 C8          0.5621   -0.9879    3.0644 C.ar      1 <0>        -0.0832
     10 C9          1.3940   -1.9860    2.5727 C.ar      1 <0>        -0.0415
     11 C10         1.5870   -2.1110    1.2112 C.ar      1 <0>        -0.1887
     12 C11         0.4105   -0.7788    4.5237 C.ar      1 <0>        -0.1170
     13 C12        -0.7242   -0.0756    4.9551 C.ar      1 <0>         0.0838
     14 C13        -0.9282    0.1512    6.3055 C.ar      1 <0>        -0.1695
     15 C14        -0.0219   -0.3267    7.2335 C.ar      1 <0>        -0.0536
     16 C15         1.0953   -1.0231    6.8175 C.ar      1 <0>        -0.2281
     17 C16         1.3217   -1.2433    5.4629 C.ar      1 <0>         0.1637
     18 O1          2.4584   -1.8906    5.0946 O.3       1 <0>        -0.3094
     19 C17         3.3259   -2.3260    6.1434 C.3       1 <0>         0.0238
     20 O2         -1.6166    0.3567    4.0439 O.3       1 <0>        -0.1754
     21 C18        -1.2226    0.7266    2.7270 C.3       1 <0>         0.0950
     22 C19        -2.4608    0.5378    1.8483 C.3       1 <0>        -0.0454
     23 C20        -3.2976   -0.6265    2.3831 C.3       1 <0>        -0.0976
     24 C21        -3.2146   -0.6975    3.8977 C.3       1 <0>        -0.2265
     25 C22        -3.8590    0.4853    4.5988 C.3       1 <0>        -0.0872
     26 C23        -3.0849    1.7736    4.3112 C.3       1 <0>        -0.2139
     27 C24        -3.5901    2.3610    3.0108 C.2       1 <0>        -0.1336
     28 C25        -3.3040    1.7945    1.8817 C.2       1 <0>        -0.1744
     29 C26         0.7701   -0.6185   -3.3311 C.3       1 <0>        -0.1531
     30 C27        -1.1136   -1.5293   -1.9692 C.3       1 <0>        -0.1577
     31 H1         -0.1646    2.5008    1.3572 H         1 <0>         0.0645
     32 H2          0.2978    3.0539   -0.2702 H         1 <0>         0.0693
     33 H3         -1.3927    2.6155    0.0738 H         1 <0>         0.0750
     34 H4         -0.3846    1.4561   -2.1092 H         1 <0>         0.1231
     35 H5          1.8776   -1.8785   -1.3907 H         1 <0>         0.4020
     36 H6          1.8707   -2.6913    3.2344 H         1 <0>         0.1362
     37 H7          2.2059   -2.9057    0.8209 H         1 <0>         0.1251
     38 H8         -1.7976    0.7019    6.6337 H         1 <0>         0.1359
     39 H9         -0.1891   -0.1552    8.2863 H         1 <0>         0.1325
     40 H10         1.7993   -1.4004    7.5447 H         1 <0>         0.1328
     41 H11         4.1933   -2.8266    5.7132 H         1 <0>         0.1014
     42 H12         3.6547   -1.4642    6.7242 H         1 <0>         0.0576
     43 H13         2.7913   -3.0193    6.7928 H         1 <0>         0.0578
     44 H14        -0.9351    1.7737    2.7311 H         1 <0>         0.0929
     45 H15        -2.1537    0.3305    0.8232 H         1 <0>         0.0944
     46 H16        -4.3372   -0.4870    2.0869 H         1 <0>         0.0568
     47 H17        -2.9265   -1.5596    1.9593 H         1 <0>         0.0566
     48 H18        -3.7069   -1.6110    4.2313 H         1 <0>         0.0357
     49 H19        -2.1649   -0.7449    4.1874 H         1 <0>         0.2033
     50 H20        -4.8843    0.5964    4.2461 H         1 <0>         0.0443
     51 H21        -3.8676    0.3041    5.6736 H         1 <0>         0.0529
     52 H22        -3.2454    2.4854    5.1210 H         1 <0>         0.0504
     53 H23        -2.0218    1.5497    4.2229 H         1 <0>         0.1966
     54 H24        -4.1925    3.2573    3.0245 H         1 <0>         0.0986
     55 H25        -3.6688    2.2212    0.9591 H         1 <0>         0.1068
     56 H26         1.6919   -0.0375   -3.3000 H         1 <0>         0.0629
     57 H27         0.9851   -1.6214   -3.6999 H         1 <0>         0.0630
     58 H28         0.0563   -0.1321   -3.9960 H         1 <0>         0.0743
     59 H29        -1.8287   -1.0452   -2.6344 H         1 <0>         0.0660
     60 H30        -0.8942   -2.5310   -2.3386 H         1 <0>         0.0595
     61 H31        -1.5373   -1.5963   -0.9671 H         1 <0>         0.0579
@<TRIPOS>BOND
     1    1    2 1
     2    1   31 1
     3    1   32 1
     4    1   33 1
     5    2    7 1
     6    2    3 2
     7    3    4 1
     8    3   34 1
     9    4    5 1
    10    4   29 1
    11    4   30 1
    12    5    6 1
    13    5   35 1
    14    6   11 ar
    15    6    7 ar
    16    7    8 ar
    17    8   21 1
    18    8    9 ar
    19    9   10 ar
    20    9   12 1
    21   10   11 ar
    22   10   36 1
    23   11   37 1
    24   12   17 ar
    25   12   13 ar
    26   13   14 ar
    27   13   20 1
    28   14   15 ar
    29   14   38 1
    30   15   16 ar
    31   15   39 1
    32   16   17 ar
    33   16   40 1
    34   17   18 1
    35   18   19 1
    36   19   41 1
    37   19   42 1
    38   19   43 1
    39   20   21 1
    40   21   22 1
    41   21   44 1
    42   22   28 1
    43   22   23 1
    44   22   45 1
    45   23   24 1
    46   23   46 1
    47   23   47 1
    48   24   25 1
    49   24   48 1
    50   24   49 1
    51   25   26 1
    52   25   50 1
    53   25   51 1
    54   26   27 1
    55   26   52 1
    56   26   53 1
    57   27   28 2
    58   27   54 1
    59   28   55 1
    60   29   56 1
    61   29   57 1
    62   29   58 1
    63   30   59 1
    64   30   60 1
    65   30   61 1
@<TRIPOS>MOLECULE
CHEMBL196232
   53    58     0     0     0
SMALL
USER_CHARGES

@<TRIPOS>ATOM
      1 C1         -0.0187    1.5258    0.0104 C.3       1 <0>        -0.1210
      2 C2          0.0021   -0.0041    0.0020 C.3       1 <0>        -0.0365
      3 C3         -1.4307   -0.5402   -0.0016 C.3       1 <0>        -0.0193
      4 C4         -1.9919   -0.4375    1.3944 C.2       1 <0>        -0.2235
      5 C5         -3.2932   -0.2313    1.8164 C.2       1 <0>         0.0697
      6 N1         -3.3116   -0.2247    3.1305 N.2       1 <0>        -0.2918
      7 N2         -2.0045   -0.4294    3.6050 N.pl3     1 <0>        -0.3091
      8 C6         -1.1980   -0.5496    2.5290 C.2       1 <0>         0.1159
      9 C7          0.2625   -0.7456    2.4191 C.2       1 <0>        -0.1040
     10 C8          0.7650   -0.5125    1.2091 C.2       1 <0>        -0.0663
     11 C9          2.1877   -0.7247    0.7307 C.3       1 <0>        -0.0892
     12 C10         1.9877   -1.2788   -0.7054 C.3       1 <0>        -0.1410
     13 C11         0.7630   -0.5051   -1.2318 C.3       1 <0>         0.2643
     14 O1          1.1912    0.6004   -2.0365 O.3       1 <0>        -0.3556
     15 C12         1.1050    0.1180   -3.4001 C.3       1 <0>         0.0235
     16 C13        -0.1473   -0.7923   -3.3353 C.3       1 <0>         0.0938
     17 H1         -1.0579   -0.2028   -3.4422 H         1 <0>         0.0969
     18 O2         -0.0647   -1.3682   -2.0146 O.3       1 <0>        -0.3545
     19 C14        -0.0818   -1.8640   -4.3927 C.ar      1 <0>        -0.0954
     20 C15         0.6239   -3.0284   -4.1538 C.ar      1 <0>        -0.0937
     21 C16         0.6839   -4.0116   -5.1237 C.ar      1 <0>        -0.1209
     22 C17         0.0379   -3.8305   -6.3323 C.ar      1 <0>        -0.1137
     23 C18        -0.6685   -2.6665   -6.5709 C.ar      1 <0>        -0.1192
     24 C19        -0.7321   -1.6852   -5.5993 C.ar      1 <0>        -0.1067
     25 C20        -1.6107   -0.4963    4.9481 C.ar      1 <0>         0.1457
     26 C21        -0.5839   -1.3495    5.3298 C.ar      1 <0>        -0.1030
     27 C22        -0.1970   -1.4136    6.6539 C.ar      1 <0>        -0.1305
     28 C23        -0.8324   -0.6277    7.6008 C.ar      1 <0>         0.0989
     29 C24        -1.8570    0.2236    7.2221 C.ar      1 <0>        -0.1324
     30 C25        -2.2430    0.2948    5.8981 C.ar      1 <0>        -0.0804
     31 F1         -0.4524   -0.6919    8.8957 F         1 <0>        -0.1330
     32 H2          1.0039    1.9031    0.0027 H         1 <0>         0.0625
     33 H3         -0.5459    1.8868   -0.8726 H         1 <0>         0.0654
     34 H4         -0.5289    1.8773    0.9072 H         1 <0>         0.0565
     35 H5         -2.0403    0.0512   -0.6848 H         1 <0>         0.0781
     36 H6         -1.4297   -1.5829   -0.3191 H         1 <0>         0.0874
     37 H7         -4.1505   -0.0977    1.1734 H         1 <0>         0.1892
     38 H8          0.8737   -1.0547    3.2541 H         1 <0>         0.1429
     39 H9          2.7324    0.2192    0.7081 H         1 <0>         0.0926
     40 H10         2.7014   -1.4534    1.3578 H         1 <0>         0.0839
     41 H11         2.8637   -1.0729   -1.3205 H         1 <0>         0.0857
     42 H12         1.7814   -2.3487   -0.6775 H         1 <0>         0.0899
     43 H13         0.9523    0.9424   -4.0965 H         1 <0>         0.1126
     44 H14         1.9917   -0.4570   -3.6671 H         1 <0>         0.0795
     45 H15         1.1286   -3.1699   -3.2095 H         1 <0>         0.1256
     46 H16         1.2359   -4.9210   -4.9374 H         1 <0>         0.1242
     47 H17         0.0854   -4.5983   -7.0904 H         1 <0>         0.1237
     48 H18        -1.1729   -2.5249   -7.5153 H         1 <0>         0.1256
     49 H19        -1.2872   -0.7774   -5.7843 H         1 <0>         0.1244
     50 H20        -0.0884   -1.9628    4.5918 H         1 <0>         0.1424
     51 H21         0.6013   -2.0774    6.9513 H         1 <0>         0.1478
     52 H22        -2.3515    0.8354    7.9621 H         1 <0>         0.1472
     53 H23        -3.0388    0.9624    5.6025 H         1 <0>         0.1450
@<TRIPOS>BOND
     1    1    2 1
     2    1   32 1
     3    1   33 1
     4    1   34 1
     5    2   10 1
     6    2   13 1
     7    2    3 1
     8    3    4 1
     9    3   35 1
    10    3   36 1
    11    4    8 2
    12    4    5 1
    13    5    6 2
    14    5   37 1
    15    6    7 1
    16    7    8 1
    17    7   25 1
    18    8    9 1
    19    9   10 2
    20    9   38 1
    21   10   11 1
    22   11   12 1
    23   11   39 1
    24   11   40 1
    25   12   13 1
    26   12   41 1
    27   12   42 1
    28   13   18 1
    29   13   14 1
    30   14   15 1
    31   15   16 1
    32   15   43 1
    33   15   44 1
    34   16   17 1
    35   16   18 1
    36   16   19 1
    37   19   24 ar
    38   19   20 ar
    39   20   21 ar
    40   20   45 1
    41   21   22 ar
    42   21   46 1
    43   22   23 ar
    44   22   47 1
    45   23   24 ar
    46   23   48 1
    47   24   49 1
    48   25   30 ar
    49   25   26 ar
    50   26   27 ar
    51   26   50 1
    52   27   28 ar
    53   27   51 1
    54   28   29 ar
    55   28   31 1
    56   29   30 ar
    57   29   52 1
    58   30   53 1
@<TRIPOS>MOLECULE
CHEMBL71405
   57    60     0     0     0
SMALL
USER_CHARGES

@<TRIPOS>ATOM
      1 C1          1.6818    1.5522    1.2576 C.3       1 <0>        -0.6371
      2 S1          0.9795   -0.0513    0.7821 S.o2      1 <0>         2.5231
      3 O1          1.3167   -1.0387    1.7468 O.2       1 <0>        -1.0312
      4 O2         -0.3649    0.1114    0.3516 O.2       1 <0>        -1.0312
      5 N1          1.8095   -0.4919   -0.5814 N.2       1 <0>        -1.0838
      6 C2          1.5142   -1.6968   -1.2187 C.ar      1 <0>         0.3130
      7 C3          0.5211   -2.5255   -0.7152 C.ar      1 <0>        -0.2697
      8 C4          0.2265   -3.7197   -1.3454 C.ar      1 <0>        -0.0520
      9 C5          0.9167   -4.1004   -2.4810 C.ar      1 <0>        -0.2419
     10 C6          1.9130   -3.2850   -2.9985 C.ar      1 <0>         0.2289
     11 C7          2.2140   -2.0711   -2.3708 C.ar      1 <0>        -0.1597
     12 C8          3.2719   -1.1902   -2.9196 C.ar      1 <0>         0.0485
     13 C9          3.0658   -0.5140   -4.1214 C.ar      1 <0>        -0.1058
     14 C10         4.0544    0.3053   -4.6272 C.ar      1 <0>        -0.1238
     15 C11         5.2479    0.4563   -3.9444 C.ar      1 <0>        -0.1453
     16 C12         5.4583   -0.2124   -2.7519 C.ar      1 <0>        -0.1305
     17 C13         4.4749   -1.0298   -2.2333 C.ar      1 <0>        -0.0991
     18 N2          2.6084   -3.6713   -4.1441 N.pl3     1 <0>        -0.6404
     19 C14         1.8899   -3.8688   -5.4054 C.3       1 <0>         0.1805
     20 C15         1.9470   -2.6020   -6.2197 C.ar      1 <0>        -0.0906
     21 C16         0.8978   -1.7031   -6.1741 C.ar      1 <0>        -0.1009
     22 C17         0.9502   -0.5411   -6.9210 C.ar      1 <0>        -0.1206
     23 C18         2.0520   -0.2778   -7.7132 C.ar      1 <0>        -0.1237
     24 C19         3.1016   -1.1762   -7.7581 C.ar      1 <0>        -0.1199
     25 C20         3.0511   -2.3362   -7.0079 C.ar      1 <0>        -0.1029
     26 C21         4.0574   -3.8797   -4.0860 C.3       1 <0>         0.1766
     27 C22         4.3445   -5.3164   -3.7330 C.ar      1 <0>        -0.0916
     28 C23         4.4650   -5.6917   -2.4081 C.ar      1 <0>        -0.0950
     29 C24         4.7284   -7.0095   -2.0842 C.ar      1 <0>        -0.1212
     30 C25         4.8709   -7.9521   -3.0853 C.ar      1 <0>        -0.1274
     31 C26         4.7495   -7.5769   -4.4102 C.ar      1 <0>        -0.1272
     32 C27         4.4819   -6.2599   -4.7339 C.ar      1 <0>        -0.1116
     33 H1          2.7479    1.4382    1.4537 H         1 <0>         0.1142
     34 H2          1.5357    2.2673    0.4480 H         1 <0>         0.1142
     35 H3          1.1837    1.9148    2.1568 H         1 <0>         0.0990
     36 H4         -0.0228   -2.2364    0.1720 H         1 <0>         0.0996
     37 H5         -0.5475   -4.3596   -0.9480 H         1 <0>         0.0985
     38 H6          0.6800   -5.0356   -2.9667 H         1 <0>         0.0994
     39 H7          2.1345   -0.6315   -4.6555 H         1 <0>         0.1192
     40 H8          3.8960    0.8293   -5.5582 H         1 <0>         0.1032
     41 H9          6.0187    1.0986   -4.3442 H         1 <0>         0.1028
     42 H10         6.3923   -0.0909   -2.2234 H         1 <0>         0.1059
     43 H11         4.6383   -1.5476   -1.2997 H         1 <0>         0.1109
     44 H12         2.3539   -4.6813   -5.9645 H         1 <0>         0.0656
     45 H13         0.8500   -4.1194   -5.1958 H         1 <0>         0.0753
     46 H14         0.0370   -1.9089   -5.5552 H         1 <0>         0.1196
     47 H15         0.1302    0.1608   -6.8859 H         1 <0>         0.1163
     48 H16         2.0926    0.6297   -8.2973 H         1 <0>         0.1135
     49 H17         3.9623   -0.9706   -8.3773 H         1 <0>         0.1134
     50 H18         3.8728   -3.0363   -7.0401 H         1 <0>         0.1126
     51 H19         4.4967   -3.6493   -5.0566 H         1 <0>         0.0657
     52 H20         4.4883   -3.2261   -3.3277 H         1 <0>         0.0829
     53 H21         4.3536   -4.9553   -1.6259 H         1 <0>         0.1217
     54 H22         4.8232   -7.3026   -1.0491 H         1 <0>         0.1170
     55 H23         5.0774   -8.9815   -2.8323 H         1 <0>         0.1141
     56 H24         4.8612   -8.3132   -5.1924 H         1 <0>         0.1143
     57 H25         4.3833   -5.9675   -5.7689 H         1 <0>         0.1144
@<TRIPOS>BOND
     1    1    2 1
     2    1   33 1
     3    1   34 1
     4    1   35 1
     5    2    3 2
     6    2    4 2
     7    2    5 1
     8    5    6 1
     9    6   11 ar
    10    6    7 ar
    11    7    8 ar
    12    7   36 1
    13    8    9 ar
    14    8   37 1
    15    9   10 ar
    16    9   38 1
    17   10   11 ar
    18   10   18 1
    19   11   12 1
    20   12   17 ar
    21   12   13 ar
    22   13   14 ar
    23   13   39 1
    24   14   15 ar
    25   14   40 1
    26   15   16 ar
    27   15   41 1
    28   16   17 ar
    29   16   42 1
    30   17   43 1
    31   18   19 1
    32   18   26 1
    33   19   20 1
    34   19   44 1
    35   19   45 1
    36   20   25 ar
    37   20   21 ar
    38   21   22 ar
    39   21   46 1
    40   22   23 ar
    41   22   47 1
    42   23   24 ar
    43   23   48 1
    44   24   25 ar
    45   24   49 1
    46   25   50 1
    47   26   27 1
    48   26   51 1
    49   26   52 1
    50   27   32 ar
    51   27   28 ar
    52   28   29 ar
    53   28   53 1
    54   29   30 ar
    55   29   54 1
    56   30   31 ar
    57   30   55 1
    58   31   32 ar
    59   31   56 1
    60   32   57 1
@<TRIPOS>MOLECULE
CHEMBL71405__1
   58    61     0     0     0
SMALL
USER_CHARGES

@<TRIPOS>ATOM
      1 C1          1.1311    1.9105    1.2767 C.3       1 <0>        -0.6687
      2 S1          0.0326    0.8744    0.2716 S.o2      1 <0>         2.6058
      3 O1          0.4077   -0.4914    0.3864 O.2       1 <0>        -0.9456
      4 O2         -1.3191    1.2723    0.4555 O.2       1 <0>        -0.9493
      5 N1          0.3826    1.2785   -1.2957 N.pl3     1 <0>        -1.0498
      6 C2          1.6742    1.0991   -1.7903 C.ar      1 <0>         0.1819
      7 C3          2.4545    0.0459   -1.3336 C.ar      1 <0>        -0.1974
      8 C4          3.7345   -0.1341   -1.8227 C.ar      1 <0>        -0.0674
      9 C5          4.2499    0.7315   -2.7694 C.ar      1 <0>        -0.1557
     10 C6          3.4847    1.7903   -3.2372 C.ar      1 <0>         0.2247
     11 C7          2.1853    1.9767   -2.7524 C.ar      1 <0>        -0.0979
     12 C8          1.3577    3.1007   -3.2506 C.ar      1 <0>        -0.0342
     13 C9          0.7806    3.0367   -4.5182 C.ar      1 <0>        -0.0912
     14 C10         0.0107    4.0861   -4.9766 C.ar      1 <0>        -0.1134
     15 C11        -0.1890    5.2001   -4.1812 C.ar      1 <0>        -0.1171
     16 C12         0.3814    5.2695   -2.9228 C.ar      1 <0>        -0.1204
     17 C13         1.1485    4.2238   -2.4514 C.ar      1 <0>        -0.1151
     18 N2          4.0069    2.6626   -4.1919 N.pl3     1 <0>        -0.6423
     19 C14         4.3885    2.1588   -5.5135 C.3       1 <0>         0.1779
     20 C15         3.1915    2.1914   -6.4285 C.ar      1 <0>        -0.0998
     21 C16         2.4220    1.0560   -6.6006 C.ar      1 <0>        -0.1062
     22 C17         1.3240    1.0859   -7.4399 C.ar      1 <0>        -0.1214
     23 C18         0.9952    2.2513   -8.1066 C.ar      1 <0>        -0.1184
     24 C19         1.7641    3.3870   -7.9337 C.ar      1 <0>        -0.1173
     25 C20         2.8596    3.3583   -7.0912 C.ar      1 <0>        -0.0991
     26 C21         4.1738    4.0828   -3.8731 C.3       1 <0>         0.1760
     27 C22         5.5429    4.3081   -3.2852 C.ar      1 <0>        -0.1024
     28 C23         5.7332    4.2113   -1.9194 C.ar      1 <0>        -0.1020
     29 C24         6.9891    4.4179   -1.3802 C.ar      1 <0>        -0.1201
     30 C25         8.0549    4.7210   -2.2067 C.ar      1 <0>        -0.1193
     31 C26         7.8648    4.8170   -3.5726 C.ar      1 <0>        -0.1206
     32 C27         6.6098    4.6060   -4.1123 C.ar      1 <0>        -0.1077
     33 H1          2.1687    1.6902    1.0256 H         1 <0>         0.1325
     34 H2          0.9239    2.9616    1.0754 H         1 <0>         0.1314
     35 H3          0.9609    1.7025    2.3330 H         1 <0>         0.1353
     36 H4         -0.3107    1.6399   -1.8698 H         1 <0>         0.4276
     37 H5          2.0602   -0.6349   -0.5937 H         1 <0>         0.1608
     38 H6          4.3359   -0.9558   -1.4629 H         1 <0>         0.1304
     39 H7          5.2513    0.5835   -3.1457 H         1 <0>         0.1252
     40 H8          0.9362    2.1676   -5.1402 H         1 <0>         0.1271
     41 H9         -0.4366    4.0378   -5.9585 H         1 <0>         0.1184
     42 H10        -0.7924    6.0190   -4.5441 H         1 <0>         0.1190
     43 H11         0.2223    6.1419   -2.3063 H         1 <0>         0.1209
     44 H12         1.5894    4.2770   -1.4669 H         1 <0>         0.1165
     45 H13         5.1789    2.7854   -5.9269 H         1 <0>         0.0781
     46 H14         4.7479    1.1339   -5.4218 H         1 <0>         0.0753
     47 H15         2.6789    0.1455   -6.0797 H         1 <0>         0.1176
     48 H16         0.7233    0.1986   -7.5749 H         1 <0>         0.1193
     49 H17         0.1377    2.2744   -8.7628 H         1 <0>         0.1186
     50 H18         1.5074    4.2974   -8.4549 H         1 <0>         0.1182
     51 H19         3.4582    4.2466   -6.9532 H         1 <0>         0.1147
     52 H20         4.0669    4.6742   -4.7824 H         1 <0>         0.0731
     53 H21         3.4144    4.3849   -3.1518 H         1 <0>         0.0820
     54 H22         4.9005    3.9745   -1.2737 H         1 <0>         0.1153
     55 H23         7.1376    4.3430   -0.3131 H         1 <0>         0.1193
     56 H24         9.0360    4.8832   -1.7853 H         1 <0>         0.1196
     57 H25         8.6974    5.0541   -4.2183 H         1 <0>         0.1199
     58 H26         6.4620    4.6773   -5.1797 H         1 <0>         0.1172
@<TRIPOS>BOND
     1    1    2 1
     2    1   33 1
     3    1   34 1
     4    1   35 1
     5    2    3 2
     6    2    4 2
     7    2    5 1
     8    5    6 1
     9    5   36 1
    10    6   11 ar
    11    6    7 ar
    12    7    8 ar
    13    7   37 1
    14    8    9 ar
    15    8   38 1
    16    9   10 ar
    17    9   39 1
    18   10   11 ar
    19   10   18 1
    20   11   12 1
    21   12   17 ar
    22   12   13 ar
    23   13   14 ar
    24   13   40 1
    25   14   15 ar
    26   14   41 1
    27   15   16 ar
    28   15   42 1
    29   16   17 ar
    30   16   43 1
    31   17   44 1
    32   18   19 1
    33   18   26 1
    34   19   20 1
    35   19   45 1
    36   19   46 1
    37   20   25 ar
    38   20   21 ar
    39   21   22 ar
    40   21   47 1
    41   22   23 ar
    42   22   48 1
    43   23   24 ar
    44   23   49 1
    45   24   25 ar
    46   24   50 1
    47   25   51 1
    48   26   27 1
    49   26   52 1
    50   26   53 1
    51   27   32 ar
    52   27   28 ar
    53   28   29 ar
    54   28   54 1
    55   29   30 ar
    56   29   55 1
    57   30   31 ar
    58   30   56 1
    59   31   32 ar
    60   31   57 1
    61   32   58 1
