@<TRIPOS>MOLECULE
3BQD-DAY
 72 77 0 0 0
SMALL
SF_CHARGES


@<TRIPOS>ATOM
1    C        38.1420   31.6110    9.9440  C.3        1 SUBUNIT     -0.0183
2    O        38.3530   28.4230   11.2960  O.3        1 SUBUNIT     -0.5493
3    C        37.8450   32.8480    9.5150  C.2        1 SUBUNIT     -0.0625
4    C        38.2240   33.2600    8.1260  C.2        1 SUBUNIT      0.0651
5    C        39.0030   32.2150    7.2770  C.2        1 SUBUNIT     -0.0955
6    C        39.3060   30.9660    7.7730  C.2        1 SUBUNIT     -0.0297
7    C        40.4680   30.2300    6.9850  C.2        1 SUBUNIT     -0.0202
8    C        41.1150   29.0380    7.6490  C.3        1 SUBUNIT     -0.0419
9    C        40.6080   28.5240    9.0420  C.3        1 SUBUNIT     -0.0276
10   C        40.0170   29.7340    9.9410  C.3        1 SUBUNIT     -0.0470
11   C        38.8500   30.4950    9.1820  C.3        1 SUBUNIT      0.0327
12   C        39.5070   29.2590   11.3730  C.3        1 SUBUNIT      0.2365
13   C        40.5510   28.4780   12.1480  C.3        1 SUBUNIT     -0.0837
14   C        41.1880   27.2840   11.3080  C.3        1 SUBUNIT     -0.0076
15   C        41.7200   27.8560    9.9030  C.3        1 SUBUNIT     -0.0322
16   C        42.5320   26.6100    9.3350  C.3        1 SUBUNIT     -0.0690
17   C        43.0420   25.9020   10.5710  C.3        1 SUBUNIT     -0.0452
18   C        42.5010   26.7130   11.8330  C.3        1 SUBUNIT      0.2698
19   C        40.0960   26.1200   10.9890  C.3        1 SUBUNIT     -0.1067
20   C        37.5760   29.6320    8.7720  C.3        1 SUBUNIT     -0.1078
21   C        42.2520   25.7520   13.0780  C.2        1 SUBUNIT      0.4291
22   C        41.7310   26.2440   14.4560  C.3        1 SUBUNIT      0.1999
23   N        37.5740   34.5120    7.7400  N.pl3      1 SUBUNIT     -0.0919
24   O        43.4710   27.7710   12.1700  O.3        1 SUBUNIT     -0.5681
25   O        42.4750   24.5520   12.9800  O.2        1 SUBUNIT     -0.5319
26   O        41.2720   25.1960   15.2950  O.3        1 SUBUNIT     -0.5610
27   C        37.1130   34.0970   10.2160  C.2        1 SUBUNIT      0.1587
28   N        37.2200   34.9760    8.9150  N.2        1 SUBUNIT     -0.3717
29   C        37.7090   34.5830    5.4750  C.2        1 SUBUNIT     -0.1230
30   C        37.5950   35.2410    6.7120  C.2        1 SUBUNIT      0.0789
31   C        37.6920   35.1850    4.2520  C.2        1 SUBUNIT     -0.1125
32   C        37.5650   36.6330    3.9300  C.2        1 SUBUNIT     -0.1122
33   C        37.4310   36.6720    6.5250  C.2        1 SUBUNIT     -0.1230
34   C        37.4230   37.4170    5.1480  C.2        1 SUBUNIT     -0.1125
35   C        40.9330   30.6630    5.7050  C.2        1 SUBUNIT     -0.1924
36   C        44.5620   25.9160   10.4890  C.3        1 SUBUNIT     -0.1155
37   H        38.7372   31.8131   10.8406  H          1 SUBUNIT      0.0358
38   H        37.1600   31.2250   10.2366  H          1 SUBUNIT      0.0358
39   H        38.4383   27.7152   11.9389  H          1 SUBUNIT      0.3761
40   H        39.3402   32.4105    6.2741  H          1 SUBUNIT      0.0793
41   H        41.0152   28.2080    6.9418  H          1 SUBUNIT      0.0357
42   H        42.1732   29.2948    7.7642  H          1 SUBUNIT      0.0357
43   H        39.8562   27.7715    8.7823  H          1 SUBUNIT      0.0360
44   H        40.8461   30.4292   10.1092  H          1 SUBUNIT      0.0359
45   H        39.2275   30.1649   11.9210  H          1 SUBUNIT      0.0167
46   H        41.3431   29.1747   12.4416  H          1 SUBUNIT      0.0378
47   H        40.0707   28.0718   13.0443  H          1 SUBUNIT      0.0378
48   H        42.3684   28.7379    9.9314  H          1 SUBUNIT      0.0357
49   H        41.8837   25.9426    8.7577  H          1 SUBUNIT      0.0379
50   H        43.3718   26.9335    8.7113  H          1 SUBUNIT      0.0379
51   H        42.7143   24.8587   10.6271  H          1 SUBUNIT      0.0361
52   H        39.6950   25.6938   11.9145  H          1 SUBUNIT      0.0407
53   H        40.5471   25.3063   10.4116  H          1 SUBUNIT      0.0407
54   H        39.2560   26.5180   10.4102  H          1 SUBUNIT      0.0407
55   H        37.0321   29.2896    9.6586  H          1 SUBUNIT      0.0418
56   H        37.8695   28.7487    8.1952  H          1 SUBUNIT      0.0418
57   H        36.8846   30.2197    8.1592  H          1 SUBUNIT      0.0418
58   H        42.5357   26.7589   14.9911  H          1 SUBUNIT      0.0193
59   H        40.8920   26.9319   14.3078  H          1 SUBUNIT      0.0193
60   H        43.9811   27.4932   12.9344  H          1 SUBUNIT      0.3791
61   H        41.8416   25.1428   16.0659  H          1 SUBUNIT      0.3797
62   H        36.7043   34.2734   11.1956  H          1 SUBUNIT      0.0742
63   H        37.8198   33.5127    5.4766  H          1 SUBUNIT      0.1037
64   H        37.7854   34.4812    3.4435  H          1 SUBUNIT      0.1043
65   H        37.5754   37.0525    2.9392  H          1 SUBUNIT      0.1040
66   H        37.3073   37.2326    7.4351  H          1 SUBUNIT      0.1037
67   H        37.3170   38.4844    5.0634  H          1 SUBUNIT      0.1043
68   H        41.7235   30.1487    5.1870  H          1 SUBUNIT      0.0939
69   H        40.5105   31.5199    5.2102  H          1 SUBUNIT      0.0939
70   H        44.9112   25.3998    9.5886  H          1 SUBUNIT      0.0505
71   H        45.0064   25.4172   11.3566  H          1 SUBUNIT      0.0505
72   H        44.9439   26.9418   10.4584  H          1 SUBUNIT      0.0505
@<TRIPOS>BOND
     1    1    3 1
     2    1   11 1
     3    2   12 1
     4    3    4 2
     5    3   27 1
     6    4    5 1
     7    4   23 1
     8    5    6 2
     9    6    7 1
    10    6   11 1
    11    7    8 1
    12    7   35 2
    13    8    9 1
    14    9   10 1
    15    9   15 1
    16   10   11 1
    17   10   12 1
    18   11   20 1
    19   12   13 1
    20   13   14 1
    21   14   15 1
    22   14   18 1
    23   14   19 1
    24   15   16 1
    25   16   17 1
    26   17   18 1
    27   17   36 1
    28   18   21 1
    29   18   24 1
    30   21   22 1
    31   21   25 2
    32   22   26 1
    33   23   28 1
    34   23   30 1
    35   27   28 2
    36   29   30 2
    37   29   31 1
    38   30   33 1
    39   31   32 2
    40   32   34 1
    41   33   34 2
    42    1   37 1
    43    1   38 1
    44    2   39 1
    45    5   40 1
    46    8   41 1
    47    8   42 1
    48    9   43 1
    49   10   44 1
    50   12   45 1
    51   13   46 1
    52   13   47 1
    53   15   48 1
    54   16   49 1
    55   16   50 1
    56   17   51 1
    57   19   52 1
    58   19   53 1
    59   19   54 1
    60   20   55 1
    61   20   56 1
    62   20   57 1
    63   22   58 1
    64   22   59 1
    65   24   60 1
    66   26   61 1
    67   27   62 1
    68   29   63 1
    69   31   64 1
    70   32   65 1
    71   33   66 1
    72   34   67 1
    73   35   68 1
    74   35   69 1
    75   36   70 1
    76   36   71 1
    77   36   72 1
