@<TRIPOS>MOLECULE
830C-RS1
 47 49 0 0 0
SMALL
SF_CHARGES


@<TRIPOS>ATOM
1    C        -7.5670   27.8520   49.3020  C.2        1 SUBUNIT     -0.1048
2    C        -8.8400   27.6210   48.8430  C.2        1 SUBUNIT      0.0178
3    C        -9.7960   26.8980   49.5520  C.2        1 SUBUNIT     -0.1048
4    C        -9.4490   26.3890   50.7850  C.2        1 SUBUNIT     -0.1174
5    C        -8.1740   26.5880   51.2560  C.2        1 SUBUNIT      0.1495
6    C        -7.2200   27.3250   50.5210  C.2        1 SUBUNIT     -0.1174
7    O        -7.9490   25.9670   52.4690  O.3        1 SUBUNIT     -0.3438
8    C        -7.3430   26.6340   53.4810  C.2        1 SUBUNIT      0.1494
9    C        -6.8690   25.8010   54.4830  C.2        1 SUBUNIT     -0.1183
10   C        -6.2710   26.3220   55.6000  C.2        1 SUBUNIT     -0.1077
11   C        -6.1960   27.7030   55.7310  C.2        1 SUBUNIT     -0.0657
12   C        -6.6340   28.5470   54.7140  C.2        1 SUBUNIT     -0.1077
13   C        -7.2090   28.0220   53.5770  C.2        1 SUBUNIT     -0.1183
14   S        -5.5190   28.4130   57.2150  S.o2       1 SUBUNIT      1.1211
15   O        -5.5820   27.5070   58.3390  O.2        1 SUBUNIT     -0.6130
16   O        -6.2980   29.6010   57.3620  O.2        1 SUBUNIT     -0.6130
17   C        -3.8780   28.9410   56.7980  C.3        1 SUBUNIT     -0.1116
18   C        -2.6760   27.9890   57.0640  C.3        1 SUBUNIT      0.0019
19   C        -2.6850   27.4130   58.5200  C.3        1 SUBUNIT     -0.0849
20   C        -1.3450   26.8280   58.9610  C.3        1 SUBUNIT      0.1959
21   O        -0.3120   27.8030   58.7340  O.3        1 SUBUNIT     -0.4365
22   C        -0.1380   28.1300   57.3600  C.3        1 SUBUNIT      0.1959
23   C        -1.3990   28.8550   56.8740  C.3        1 SUBUNIT     -0.0849
24   C        -2.6820   26.8850   55.9850  C.2        1 SUBUNIT      0.6136
25   N        -2.7380   25.5740   56.2570  N.am       1 SUBUNIT     -0.3802
26   O        -2.5940   27.1550   54.7780  O.2        1 SUBUNIT     -0.5499
27   O        -2.5310   24.7710   55.1030  O.2        1 SUBUNIT     -0.4958
28   Cl       -9.3060   28.2050   47.3000  Cl         1 SUBUNIT     -0.1209
29   H        -6.8642   28.4273   48.7251  H          1 SUBUNIT      0.0980
30   H       -10.7819   26.7379   49.1519  H          1 SUBUNIT      0.0980
31   H       -10.1662   25.8427   51.3723  H          1 SUBUNIT      0.0962
32   H        -6.2253   27.4803   50.9009  H          1 SUBUNIT      0.0962
33   H        -6.9689   24.7339   54.3881  H          1 SUBUNIT      0.0948
34   H        -5.8701   25.6695   56.3558  H          1 SUBUNIT      0.0947
35   H        -6.5256   29.6131   54.8111  H          1 SUBUNIT      0.0947
36   H        -7.5442   28.6706   52.7866  H          1 SUBUNIT      0.0948
37   H        -3.8345   29.1529   55.7246  H          1 SUBUNIT      0.0349
38   H        -3.6436   29.8510   57.3600  H          1 SUBUNIT      0.0349
39   H        -2.9481   28.2178   59.2143  H          1 SUBUNIT      0.0377
40   H        -3.4369   26.6192   58.5788  H          1 SUBUNIT      0.0377
41   H        -1.3708   26.5811   60.0275  H          1 SUBUNIT      0.0183
42   H        -1.1150   25.9271   58.3827  H          1 SUBUNIT      0.0183
43   H         0.7411   28.7748   57.2580  H          1 SUBUNIT      0.0183
44   H         0.0185   27.2063   56.7932  H          1 SUBUNIT      0.0183
45   H        -1.2812   29.0887   55.8107  H          1 SUBUNIT      0.0377
46   H        -1.5101   29.7843   57.4424  H          1 SUBUNIT      0.0377
47   H        -2.9095   25.2233   57.1863  H          1 SUBUNIT      0.2902
@<TRIPOS>BOND
     1    1    2 2
     2    1    6 1
     3    2    3 1
     4    2   28 1
     5    3    4 2
     6    4    5 1
     7    5    6 2
     8    5    7 1
     9    7    8 1
    10    8    9 2
    11    8   13 1
    12    9   10 1
    13   10   11 2
    14   11   12 1
    15   11   14 1
    16   12   13 2
    17   14   15 2
    18   14   16 2
    19   14   17 1
    20   17   18 1
    21   18   19 1
    22   18   23 1
    23   18   24 1
    24   19   20 1
    25   20   21 1
    26   21   22 1
    27   22   23 1
    28   24   25 1
    29   24   26 2
    30   25   27 1
    31    1   29 1
    32    3   30 1
    33    4   31 1
    34    6   32 1
    35    9   33 1
    36   10   34 1
    37   12   35 1
    38   13   36 1
    39   17   37 1
    40   17   38 1
    41   19   39 1
    42   19   40 1
    43   20   41 1
    44   20   42 1
    45   22   43 1
    46   22   44 1
    47   23   45 1
    48   23   46 1
    49   25   47 1
